
---------- Begin Simulation Statistics ----------
final_tick                                   60254000                       # Number of ticks from beginning of simulation (restored from checkpoints and never reset)
host_inst_rate                                 195290                       # Simulator instruction rate (inst/s)
host_mem_usage                                 737660                       # Number of bytes of host memory used
host_op_rate                                   225243                       # Simulator op (including micro ops) rate (op/s)
host_seconds                                     0.06                       # Real time elapsed on the host
host_tick_rate                              933724468                       # Simulator tick rate (ticks/s)
sim_freq                                 1000000000000                       # Frequency of simulated ticks
sim_insts                                       12564                       # Number of instructions simulated
sim_ops                                         14523                       # Number of ops (including micro ops) simulated
sim_seconds                                  0.000060                       # Number of seconds simulated
sim_ticks                                    60254000                       # Number of ticks simulated
system.cpu.Branches                              2586                       # Number of branches fetched
system.cpu.committedInsts                       12564                       # Number of instructions committed
system.cpu.committedOps                         14523                       # Number of ops (including micro ops) committed
system.cpu.idle_fraction                     0.000000                       # Percentage of idle cycles
system.cpu.not_idle_fraction                 1.000000                       # Percentage of non-idle cycles
system.cpu.numCycles                           120508                       # number of cpu cycles simulated
system.cpu.numWorkItemsCompleted                    0                       # number of work items this cpu completed
system.cpu.numWorkItemsStarted                      0                       # number of work items this cpu started
system.cpu.num_busy_cycles               120507.998000                       # Number of busy cycles
system.cpu.num_cc_register_reads                49834                       # number of times the CC registers were read
system.cpu.num_cc_register_writes                8233                       # number of times the CC registers were written
system.cpu.num_conditional_control_insts         1837                       # number of instructions that are conditional controls
system.cpu.num_fp_alu_accesses                      0                       # Number of float alu accesses
system.cpu.num_fp_insts                             0                       # number of float instructions
system.cpu.num_fp_register_reads                    0                       # number of times the floating registers were read
system.cpu.num_fp_register_writes                   0                       # number of times the floating registers were written
system.cpu.num_func_calls                         521                       # number of times a function call or return occured
system.cpu.num_idle_cycles                   0.002000                       # Number of idle cycles
system.cpu.num_int_alu_accesses                 12553                       # Number of integer alu accesses
system.cpu.num_int_insts                        12553                       # number of integer instructions
system.cpu.num_int_register_reads               20791                       # number of times the integer registers were read
system.cpu.num_int_register_writes               8715                       # number of times the integer registers were written
system.cpu.num_load_insts                        2187                       # Number of load instructions
system.cpu.num_mem_refs                          4364                       # number of memory refs
system.cpu.num_store_insts                       2177                       # Number of store instructions
system.cpu.num_vec_alu_accesses                     0                       # Number of vector alu accesses
system.cpu.num_vec_insts                            0                       # number of vector instructions
system.cpu.num_vec_register_reads                  99                       # number of times the vector registers were read
system.cpu.num_vec_register_writes                 63                       # number of times the vector registers were written
system.cpu.op_class::No_OpClass                     0      0.00%      0.00% # Class of executed instruction
system.cpu.op_class::IntAlu                     10149     69.22%     69.22% # Class of executed instruction
system.cpu.op_class::IntMult                       86      0.59%     69.81% # Class of executed instruction
system.cpu.op_class::IntDiv                         0      0.00%     69.81% # Class of executed instruction
system.cpu.op_class::FloatAdd                       0      0.00%     69.81% # Class of executed instruction
system.cpu.op_class::FloatCmp                       0      0.00%     69.81% # Class of executed instruction
system.cpu.op_class::FloatCvt                       0      0.00%     69.81% # Class of executed instruction
system.cpu.op_class::FloatMult                      0      0.00%     69.81% # Class of executed instruction
system.cpu.op_class::FloatMultAcc                   0      0.00%     69.81% # Class of executed instruction
system.cpu.op_class::FloatDiv                       0      0.00%     69.81% # Class of executed instruction
system.cpu.op_class::FloatMisc                      0      0.00%     69.81% # Class of executed instruction
system.cpu.op_class::FloatSqrt                      0      0.00%     69.81% # Class of executed instruction
system.cpu.op_class::SimdAdd                        0      0.00%     69.81% # Class of executed instruction
system.cpu.op_class::SimdAddAcc                     0      0.00%     69.81% # Class of executed instruction
system.cpu.op_class::SimdAlu                        0      0.00%     69.81% # Class of executed instruction
system.cpu.op_class::SimdCmp                        0      0.00%     69.81% # Class of executed instruction
system.cpu.op_class::SimdCvt                        0      0.00%     69.81% # Class of executed instruction
system.cpu.op_class::SimdMisc                       0      0.00%     69.81% # Class of executed instruction
system.cpu.op_class::SimdMult                       0      0.00%     69.81% # Class of executed instruction
system.cpu.op_class::SimdMultAcc                    0      0.00%     69.81% # Class of executed instruction
system.cpu.op_class::SimdShift                      0      0.00%     69.81% # Class of executed instruction
system.cpu.op_class::SimdShiftAcc                   0      0.00%     69.81% # Class of executed instruction
system.cpu.op_class::SimdDiv                        0      0.00%     69.81% # Class of executed instruction
system.cpu.op_class::SimdSqrt                       0      0.00%     69.81% # Class of executed instruction
system.cpu.op_class::SimdFloatAdd                   0      0.00%     69.81% # Class of executed instruction
system.cpu.op_class::SimdFloatAlu                   0      0.00%     69.81% # Class of executed instruction
system.cpu.op_class::SimdFloatCmp                   3      0.02%     69.83% # Class of executed instruction
system.cpu.op_class::SimdFloatCvt                   3      0.02%     69.85% # Class of executed instruction
system.cpu.op_class::SimdFloatDiv                   0      0.00%     69.85% # Class of executed instruction
system.cpu.op_class::SimdFloatMisc                 55      0.38%     70.23% # Class of executed instruction
system.cpu.op_class::SimdFloatMult                  1      0.01%     70.23% # Class of executed instruction
system.cpu.op_class::SimdFloatMultAcc               0      0.00%     70.23% # Class of executed instruction
system.cpu.op_class::SimdFloatSqrt                  0      0.00%     70.23% # Class of executed instruction
system.cpu.op_class::SimdReduceAdd                  0      0.00%     70.23% # Class of executed instruction
system.cpu.op_class::SimdReduceAlu                  0      0.00%     70.23% # Class of executed instruction
system.cpu.op_class::SimdReduceCmp                  0      0.00%     70.23% # Class of executed instruction
system.cpu.op_class::SimdFloatReduceAdd             0      0.00%     70.23% # Class of executed instruction
system.cpu.op_class::SimdFloatReduceCmp             0      0.00%     70.23% # Class of executed instruction
system.cpu.op_class::SimdAes                        0      0.00%     70.23% # Class of executed instruction
system.cpu.op_class::SimdAesMix                     0      0.00%     70.23% # Class of executed instruction
system.cpu.op_class::SimdSha1Hash                   0      0.00%     70.23% # Class of executed instruction
system.cpu.op_class::SimdSha1Hash2                  0      0.00%     70.23% # Class of executed instruction
system.cpu.op_class::SimdSha256Hash                 0      0.00%     70.23% # Class of executed instruction
system.cpu.op_class::SimdSha256Hash2                0      0.00%     70.23% # Class of executed instruction
system.cpu.op_class::SimdShaSigma2                  0      0.00%     70.23% # Class of executed instruction
system.cpu.op_class::SimdShaSigma3                  0      0.00%     70.23% # Class of executed instruction
system.cpu.op_class::SimdPredAlu                    0      0.00%     70.23% # Class of executed instruction
system.cpu.op_class::MemRead                     2187     14.92%     85.15% # Class of executed instruction
system.cpu.op_class::MemWrite                    2177     14.85%    100.00% # Class of executed instruction
system.cpu.op_class::FloatMemRead                   0      0.00%    100.00% # Class of executed instruction
system.cpu.op_class::FloatMemWrite                  0      0.00%    100.00% # Class of executed instruction
system.cpu.op_class::IprAccess                      0      0.00%    100.00% # Class of executed instruction
system.cpu.op_class::InstPrefetch                   0      0.00%    100.00% # Class of executed instruction
system.cpu.op_class::total                      14661                       # Class of executed instruction
system.cpu.workload.numSyscalls                    11                       # Number of system calls
system.ruby.Directory_Controller.Exclusive_Unblock           95      0.00%      0.00%
system.ruby.Directory_Controller.GETS             444      0.00%      0.00%
system.ruby.Directory_Controller.GETX              95      0.00%      0.00%
system.ruby.Directory_Controller.I.GETS           444      0.00%      0.00%
system.ruby.Directory_Controller.I.GETX            73      0.00%      0.00%
system.ruby.Directory_Controller.IS.Unblock          444      0.00%      0.00%
system.ruby.Directory_Controller.IS_M.Memory_Data_Cache          444      0.00%      0.00%
system.ruby.Directory_Controller.MM.Exclusive_Unblock           95      0.00%      0.00%
system.ruby.Directory_Controller.MM_M.Memory_Data_Cache           95      0.00%      0.00%
system.ruby.Directory_Controller.Memory_Data_Cache          539      0.00%      0.00%
system.ruby.Directory_Controller.S.GETX            22      0.00%      0.00%
system.ruby.Directory_Controller.Unblock          444      0.00%      0.00%
system.ruby.IFETCH.hit_latency_hist_seqr::bucket_size            1                      
system.ruby.IFETCH.hit_latency_hist_seqr::max_bucket            9                      
system.ruby.IFETCH.hit_latency_hist_seqr::samples        14445                      
system.ruby.IFETCH.hit_latency_hist_seqr |       14445    100.00%    100.00% |           0      0.00%    100.00% |           0      0.00%    100.00% |           0      0.00%    100.00% |           0      0.00%    100.00% |           0      0.00%    100.00% |           0      0.00%    100.00% |           0      0.00%    100.00% |           0      0.00%    100.00% |           0      0.00%    100.00%
system.ruby.IFETCH.hit_latency_hist_seqr::total        14445                      
system.ruby.IFETCH.latency_hist_seqr::bucket_size           32                      
system.ruby.IFETCH.latency_hist_seqr::max_bucket          319                      
system.ruby.IFETCH.latency_hist_seqr::samples        14842                      
system.ruby.IFETCH.latency_hist_seqr::mean     0.010848                      
system.ruby.IFETCH.latency_hist_seqr::stdev     1.321538                      
system.ruby.IFETCH.latency_hist_seqr     |       14841     99.99%     99.99% |           0      0.00%     99.99% |           0      0.00%     99.99% |           0      0.00%     99.99% |           0      0.00%     99.99% |           1      0.01%    100.00% |           0      0.00%    100.00% |           0      0.00%    100.00% |           0      0.00%    100.00% |           0      0.00%    100.00%
system.ruby.IFETCH.latency_hist_seqr::total        14842                      
system.ruby.IFETCH.miss_latency_hist_seqr::bucket_size           32                      
system.ruby.IFETCH.miss_latency_hist_seqr::max_bucket          319                      
system.ruby.IFETCH.miss_latency_hist_seqr::samples          397                      
system.ruby.IFETCH.miss_latency_hist_seqr::mean     0.405542                      
system.ruby.IFETCH.miss_latency_hist_seqr::stdev     8.080358                      
system.ruby.IFETCH.miss_latency_hist_seqr |         396     99.75%     99.75% |           0      0.00%     99.75% |           0      0.00%     99.75% |           0      0.00%     99.75% |           0      0.00%     99.75% |           1      0.25%    100.00% |           0      0.00%    100.00% |           0      0.00%    100.00% |           0      0.00%    100.00% |           0      0.00%    100.00%
system.ruby.IFETCH.miss_latency_hist_seqr::total          397                      
system.ruby.L1Cache_Controller.All_acks            95      0.00%      0.00%
system.ruby.L1Cache_Controller.Data               542      0.00%      0.00%
system.ruby.L1Cache_Controller.Exclusive_Data           95      0.00%      0.00%
system.ruby.L1Cache_Controller.I.Ifetch           397      0.00%      0.00%
system.ruby.L1Cache_Controller.I.Load             145      0.00%      0.00%
system.ruby.L1Cache_Controller.I.Store             73      0.00%      0.00%
system.ruby.L1Cache_Controller.IM.Exclusive_Data           73      0.00%      0.00%
system.ruby.L1Cache_Controller.IS.Data            542      0.00%      0.00%
system.ruby.L1Cache_Controller.Ifetch           14936      0.00%      0.00%
system.ruby.L1Cache_Controller.L1_Replacement          147      0.00%      0.00%
system.ruby.L1Cache_Controller.Load              2252      0.00%      0.00%
system.ruby.L1Cache_Controller.MM.Load           1680      0.00%      0.00%
system.ruby.L1Cache_Controller.MM.Store          1817      0.00%      0.00%
system.ruby.L1Cache_Controller.MM_W.Load           11      0.00%      0.00%
system.ruby.L1Cache_Controller.MM_W.Store          203      0.00%      0.00%
system.ruby.L1Cache_Controller.MM_W.Use_Timeout           95      0.00%      0.00%
system.ruby.L1Cache_Controller.OM.All_acks           95      0.00%      0.00%
system.ruby.L1Cache_Controller.S.Ifetch         14445      0.00%      0.00%
system.ruby.L1Cache_Controller.S.L1_Replacement          147      0.00%      0.00%
system.ruby.L1Cache_Controller.S.Load             334      0.00%      0.00%
system.ruby.L1Cache_Controller.S.Store             22      0.00%      0.00%
system.ruby.L1Cache_Controller.SI.Ifetch           94      0.00%      0.00%
system.ruby.L1Cache_Controller.SI.Load             82      0.00%      0.00%
system.ruby.L1Cache_Controller.SI.Writeback_Ack           73      0.00%      0.00%
system.ruby.L1Cache_Controller.SI.Writeback_Ack_Data           74      0.00%      0.00%
system.ruby.L1Cache_Controller.SM.Exclusive_Data           22      0.00%      0.00%
system.ruby.L1Cache_Controller.Store             2115      0.00%      0.00%
system.ruby.L1Cache_Controller.Use_Timeout           95      0.00%      0.00%
system.ruby.L1Cache_Controller.Writeback_Ack           73      0.00%      0.00%
system.ruby.L1Cache_Controller.Writeback_Ack_Data           74      0.00%      0.00%
system.ruby.L2Cache_Controller.All_Acks            95      0.00%      0.00%
system.ruby.L2Cache_Controller.Data               539      0.00%      0.00%
system.ruby.L2Cache_Controller.Exclusive_Unblock           95      0.00%      0.00%
system.ruby.L2Cache_Controller.I.L1_GETS          444      0.00%      0.00%
system.ruby.L2Cache_Controller.I.L1_GETX           73      0.00%      0.00%
system.ruby.L2Cache_Controller.IGM.Data            73      0.00%      0.00%
system.ruby.L2Cache_Controller.IGMLS.Data           22      0.00%      0.00%
system.ruby.L2Cache_Controller.IGMO.All_Acks           95      0.00%      0.00%
system.ruby.L2Cache_Controller.IGMOU.Exclusive_Unblock           95      0.00%      0.00%
system.ruby.L2Cache_Controller.IGS.Data           444      0.00%      0.00%
system.ruby.L2Cache_Controller.IGS.Unblock          444      0.00%      0.00%
system.ruby.L2Cache_Controller.ILS.L1_GETX           22      0.00%      0.00%
system.ruby.L2Cache_Controller.ILS.L1_PUTS_only           74      0.00%      0.00%
system.ruby.L2Cache_Controller.IW.L1_WBCLEANDATA           74      0.00%      0.00%
system.ruby.L2Cache_Controller.L1_GETS            542      0.00%      0.00%
system.ruby.L2Cache_Controller.L1_GETX             95      0.00%      0.00%
system.ruby.L2Cache_Controller.L1_PUTS_only          147      0.00%      0.00%
system.ruby.L2Cache_Controller.L1_WBCLEANDATA           74      0.00%      0.00%
system.ruby.L2Cache_Controller.S.L1_GETS           98      0.00%      0.00%
system.ruby.L2Cache_Controller.SLS.L1_PUTS_only           73      0.00%      0.00%
system.ruby.L2Cache_Controller.SS.Unblock           98      0.00%      0.00%
system.ruby.L2Cache_Controller.SW.Unblock           73      0.00%      0.00%
system.ruby.L2Cache_Controller.Unblock            615      0.00%      0.00%
system.ruby.LD.hit_latency_hist_seqr::bucket_size            1                      
system.ruby.LD.hit_latency_hist_seqr::max_bucket            9                      
system.ruby.LD.hit_latency_hist_seqr::samples         2007                      
system.ruby.LD.hit_latency_hist_seqr     |        2007    100.00%    100.00% |           0      0.00%    100.00% |           0      0.00%    100.00% |           0      0.00%    100.00% |           0      0.00%    100.00% |           0      0.00%    100.00% |           0      0.00%    100.00% |           0      0.00%    100.00% |           0      0.00%    100.00% |           0      0.00%    100.00%
system.ruby.LD.hit_latency_hist_seqr::total         2007                      
system.ruby.LD.latency_hist_seqr::bucket_size            1                      
system.ruby.LD.latency_hist_seqr::max_bucket            9                      
system.ruby.LD.latency_hist_seqr::samples         2152                      
system.ruby.LD.latency_hist_seqr         |        2152    100.00%    100.00% |           0      0.00%    100.00% |           0      0.00%    100.00% |           0      0.00%    100.00% |           0      0.00%    100.00% |           0      0.00%    100.00% |           0      0.00%    100.00% |           0      0.00%    100.00% |           0      0.00%    100.00% |           0      0.00%    100.00%
system.ruby.LD.latency_hist_seqr::total          2152                      
system.ruby.LD.miss_latency_hist_seqr::bucket_size            1                      
system.ruby.LD.miss_latency_hist_seqr::max_bucket            9                      
system.ruby.LD.miss_latency_hist_seqr::samples          145                      
system.ruby.LD.miss_latency_hist_seqr    |         145    100.00%    100.00% |           0      0.00%    100.00% |           0      0.00%    100.00% |           0      0.00%    100.00% |           0      0.00%    100.00% |           0      0.00%    100.00% |           0      0.00%    100.00% |           0      0.00%    100.00% |           0      0.00%    100.00% |           0      0.00%    100.00%
system.ruby.LD.miss_latency_hist_seqr::total          145                      
system.ruby.Load_Linked.hit_latency_hist_seqr::bucket_size            1                      
system.ruby.Load_Linked.hit_latency_hist_seqr::max_bucket            9                      
system.ruby.Load_Linked.hit_latency_hist_seqr::samples           18                      
system.ruby.Load_Linked.hit_latency_hist_seqr |          18    100.00%    100.00% |           0      0.00%    100.00% |           0      0.00%    100.00% |           0      0.00%    100.00% |           0      0.00%    100.00% |           0      0.00%    100.00% |           0      0.00%    100.00% |           0      0.00%    100.00% |           0      0.00%    100.00% |           0      0.00%    100.00%
system.ruby.Load_Linked.hit_latency_hist_seqr::total           18                      
system.ruby.Load_Linked.latency_hist_seqr::bucket_size            1                      
system.ruby.Load_Linked.latency_hist_seqr::max_bucket            9                      
system.ruby.Load_Linked.latency_hist_seqr::samples           18                      
system.ruby.Load_Linked.latency_hist_seqr |          18    100.00%    100.00% |           0      0.00%    100.00% |           0      0.00%    100.00% |           0      0.00%    100.00% |           0      0.00%    100.00% |           0      0.00%    100.00% |           0      0.00%    100.00% |           0      0.00%    100.00% |           0      0.00%    100.00% |           0      0.00%    100.00%
system.ruby.Load_Linked.latency_hist_seqr::total           18                      
system.ruby.ST.hit_latency_hist_seqr::bucket_size            1                      
system.ruby.ST.hit_latency_hist_seqr::max_bucket            9                      
system.ruby.ST.hit_latency_hist_seqr::samples         2003                      
system.ruby.ST.hit_latency_hist_seqr     |        2003    100.00%    100.00% |           0      0.00%    100.00% |           0      0.00%    100.00% |           0      0.00%    100.00% |           0      0.00%    100.00% |           0      0.00%    100.00% |           0      0.00%    100.00% |           0      0.00%    100.00% |           0      0.00%    100.00% |           0      0.00%    100.00%
system.ruby.ST.hit_latency_hist_seqr::total         2003                      
system.ruby.ST.latency_hist_seqr::bucket_size            1                      
system.ruby.ST.latency_hist_seqr::max_bucket            9                      
system.ruby.ST.latency_hist_seqr::samples         2097                      
system.ruby.ST.latency_hist_seqr         |        2097    100.00%    100.00% |           0      0.00%    100.00% |           0      0.00%    100.00% |           0      0.00%    100.00% |           0      0.00%    100.00% |           0      0.00%    100.00% |           0      0.00%    100.00% |           0      0.00%    100.00% |           0      0.00%    100.00% |           0      0.00%    100.00%
system.ruby.ST.latency_hist_seqr::total          2097                      
system.ruby.ST.miss_latency_hist_seqr::bucket_size            1                      
system.ruby.ST.miss_latency_hist_seqr::max_bucket            9                      
system.ruby.ST.miss_latency_hist_seqr::samples           94                      
system.ruby.ST.miss_latency_hist_seqr    |          94    100.00%    100.00% |           0      0.00%    100.00% |           0      0.00%    100.00% |           0      0.00%    100.00% |           0      0.00%    100.00% |           0      0.00%    100.00% |           0      0.00%    100.00% |           0      0.00%    100.00% |           0      0.00%    100.00% |           0      0.00%    100.00%
system.ruby.ST.miss_latency_hist_seqr::total           94                      
system.ruby.Store_Conditional.hit_latency_hist_seqr::bucket_size            1                      
system.ruby.Store_Conditional.hit_latency_hist_seqr::max_bucket            9                      
system.ruby.Store_Conditional.hit_latency_hist_seqr::samples           17                      
system.ruby.Store_Conditional.hit_latency_hist_seqr |          17    100.00%    100.00% |           0      0.00%    100.00% |           0      0.00%    100.00% |           0      0.00%    100.00% |           0      0.00%    100.00% |           0      0.00%    100.00% |           0      0.00%    100.00% |           0      0.00%    100.00% |           0      0.00%    100.00% |           0      0.00%    100.00%
system.ruby.Store_Conditional.hit_latency_hist_seqr::total           17                      
system.ruby.Store_Conditional.latency_hist_seqr::bucket_size            1                      
system.ruby.Store_Conditional.latency_hist_seqr::max_bucket            9                      
system.ruby.Store_Conditional.latency_hist_seqr::samples           18                      
system.ruby.Store_Conditional.latency_hist_seqr |          18    100.00%    100.00% |           0      0.00%    100.00% |           0      0.00%    100.00% |           0      0.00%    100.00% |           0      0.00%    100.00% |           0      0.00%    100.00% |           0      0.00%    100.00% |           0      0.00%    100.00% |           0      0.00%    100.00% |           0      0.00%    100.00%
system.ruby.Store_Conditional.latency_hist_seqr::total           18                      
system.ruby.Store_Conditional.miss_latency_hist_seqr::bucket_size            1                      
system.ruby.Store_Conditional.miss_latency_hist_seqr::max_bucket            9                      
system.ruby.Store_Conditional.miss_latency_hist_seqr::samples            1                      
system.ruby.Store_Conditional.miss_latency_hist_seqr::stdev          nan                      
system.ruby.Store_Conditional.miss_latency_hist_seqr |           1    100.00%    100.00% |           0      0.00%    100.00% |           0      0.00%    100.00% |           0      0.00%    100.00% |           0      0.00%    100.00% |           0      0.00%    100.00% |           0      0.00%    100.00% |           0      0.00%    100.00% |           0      0.00%    100.00% |           0      0.00%    100.00%
system.ruby.Store_Conditional.miss_latency_hist_seqr::total            1                      
system.ruby.dir_cntrl0.requestToDir.avg_buf_msgs     0.004473                       # Average number of messages in buffer
system.ruby.dir_cntrl0.requestToDir.avg_stall_time  3499.564344                       # Average number of cycles messages are stalled in this MB
system.ruby.dir_cntrl0.requestToMemory.avg_buf_msgs     0.004489                       # Average number of messages in buffer
system.ruby.dir_cntrl0.requestToMemory.avg_stall_time   501.858798                       # Average number of cycles messages are stalled in this MB
system.ruby.dir_cntrl0.responseFromDir.avg_buf_msgs     0.004473                       # Average number of messages in buffer
system.ruby.dir_cntrl0.responseFromDir.avg_stall_time   499.385933                       # Average number of cycles messages are stalled in this MB
system.ruby.dir_cntrl0.responseFromMemory.avg_buf_msgs     0.004473                       # Average number of messages in buffer
system.ruby.dir_cntrl0.responseFromMemory.avg_stall_time   499.390082                       # Average number of cycles messages are stalled in this MB
system.ruby.dir_cntrl0.responseToDir.avg_buf_msgs     0.004473                       # Average number of messages in buffer
system.ruby.dir_cntrl0.responseToDir.avg_stall_time  3494.962990                       # Average number of cycles messages are stalled in this MB
system.ruby.hit_latency_hist_seqr::bucket_size            1                      
system.ruby.hit_latency_hist_seqr::max_bucket            9                      
system.ruby.hit_latency_hist_seqr::samples        18490                      
system.ruby.hit_latency_hist_seqr        |       18490    100.00%    100.00% |           0      0.00%    100.00% |           0      0.00%    100.00% |           0      0.00%    100.00% |           0      0.00%    100.00% |           0      0.00%    100.00% |           0      0.00%    100.00% |           0      0.00%    100.00% |           0      0.00%    100.00% |           0      0.00%    100.00%
system.ruby.hit_latency_hist_seqr::total        18490                      
system.ruby.l1_cntrl0.L1Dcache.demand_accesses         4285                       # Number of cache demand accesses
system.ruby.l1_cntrl0.L1Dcache.demand_hits         4045                       # Number of cache demand hits
system.ruby.l1_cntrl0.L1Dcache.demand_misses          240                       # Number of cache demand misses
system.ruby.l1_cntrl0.L1Icache.demand_accesses        14842                       # Number of cache demand accesses
system.ruby.l1_cntrl0.L1Icache.demand_hits        14445                       # Number of cache demand hits
system.ruby.l1_cntrl0.L1Icache.demand_misses          397                       # Number of cache demand misses
system.ruby.l1_cntrl0.mandatoryQueue.avg_buf_msgs     0.173325                       # Average number of messages in buffer
system.ruby.l1_cntrl0.mandatoryQueue.avg_stall_time   797.071559                       # Average number of cycles messages are stalled in this MB
system.ruby.l1_cntrl0.requestFromL1Cache.avg_buf_msgs     0.007120                       # Average number of messages in buffer
system.ruby.l1_cntrl0.requestFromL1Cache.avg_stall_time   499.991702                       # Average number of cycles messages are stalled in this MB
system.ruby.l1_cntrl0.responseFromL1Cache.avg_buf_msgs     0.005892                       # Average number of messages in buffer
system.ruby.l1_cntrl0.responseFromL1Cache.avg_stall_time   499.327845                       # Average number of cycles messages are stalled in this MB
system.ruby.l1_cntrl0.responseToL1Cache.avg_buf_msgs     0.006506                       # Average number of messages in buffer
system.ruby.l1_cntrl0.responseToL1Cache.avg_stall_time  4292.482644                       # Average number of cycles messages are stalled in this MB
system.ruby.l1_cntrl0.triggerQueue.avg_buf_msgs     0.000788                       # Average number of messages in buffer
system.ruby.l1_cntrl0.triggerQueue.avg_stall_time   498.186842                       # Average number of cycles messages are stalled in this MB
system.ruby.l2_cntrl0.GlobalRequestFromL2Cache.avg_buf_msgs     0.004473                       # Average number of messages in buffer
system.ruby.l2_cntrl0.GlobalRequestFromL2Cache.avg_stall_time   499.962658                       # Average number of cycles messages are stalled in this MB
system.ruby.l2_cntrl0.L1RequestFromL2Cache.avg_buf_msgs     0.000183                       # Average number of messages in buffer
system.ruby.l2_cntrl0.L1RequestFromL2Cache.avg_stall_time   498.220035                       # Average number of cycles messages are stalled in this MB
system.ruby.l2_cntrl0.L1RequestToL2Cache.avg_buf_msgs     0.007120                       # Average number of messages in buffer
system.ruby.l2_cntrl0.L1RequestToL2Cache.avg_stall_time  3499.767650                       # Average number of cycles messages are stalled in this MB
system.ruby.l2_cntrl0.L2cache.demand_accesses          637                       # Number of cache demand accesses
system.ruby.l2_cntrl0.L2cache.demand_hits           98                       # Number of cache demand hits
system.ruby.l2_cntrl0.L2cache.demand_misses          539                       # Number of cache demand misses
system.ruby.l2_cntrl0.responseFromL2Cache.avg_buf_msgs     0.026430                       # Average number of messages in buffer
system.ruby.l2_cntrl0.responseFromL2Cache.avg_stall_time  1296.515571                       # Average number of cycles messages are stalled in this MB
system.ruby.l2_cntrl0.responseToL2Cache.avg_buf_msgs     0.010364                       # Average number of messages in buffer
system.ruby.l2_cntrl0.responseToL2Cache.avg_stall_time  3495.726425                       # Average number of cycles messages are stalled in this MB
system.ruby.l2_cntrl0.triggerQueue.avg_buf_msgs     0.000788                       # Average number of messages in buffer
system.ruby.l2_cntrl0.triggerQueue.avg_stall_time   498.220035                       # Average number of cycles messages are stalled in this MB
system.ruby.latency_hist_seqr::bucket_size           32                      
system.ruby.latency_hist_seqr::max_bucket          319                      
system.ruby.latency_hist_seqr::samples          19127                      
system.ruby.latency_hist_seqr::mean          0.008417                      
system.ruby.latency_hist_seqr::stdev         1.164133                      
system.ruby.latency_hist_seqr            |       19126     99.99%     99.99% |           0      0.00%     99.99% |           0      0.00%     99.99% |           0      0.00%     99.99% |           0      0.00%     99.99% |           1      0.01%    100.00% |           0      0.00%    100.00% |           0      0.00%    100.00% |           0      0.00%    100.00% |           0      0.00%    100.00%
system.ruby.latency_hist_seqr::total            19127                      
system.ruby.miss_latency_hist_seqr::bucket_size           32                      
system.ruby.miss_latency_hist_seqr::max_bucket          319                      
system.ruby.miss_latency_hist_seqr::samples          637                      
system.ruby.miss_latency_hist_seqr::mean     0.252747                      
system.ruby.miss_latency_hist_seqr::stdev     6.379052                      
system.ruby.miss_latency_hist_seqr       |         636     99.84%     99.84% |           0      0.00%     99.84% |           0      0.00%     99.84% |           0      0.00%     99.84% |           0      0.00%     99.84% |           1      0.16%    100.00% |           0      0.00%    100.00% |           0      0.00%    100.00% |           0      0.00%    100.00% |           0      0.00%    100.00%
system.ruby.miss_latency_hist_seqr::total          637                      
system.ruby.network.int_link_buffers00.avg_buf_msgs     0.007120                       # Average number of messages in buffer
system.ruby.network.int_link_buffers00.avg_stall_time  1499.950211                       # Average number of cycles messages are stalled in this MB
system.ruby.network.int_link_buffers02.avg_buf_msgs     0.005892                       # Average number of messages in buffer
system.ruby.network.int_link_buffers02.avg_stall_time  1497.958642                       # Average number of cycles messages are stalled in this MB
system.ruby.network.int_link_buffers04.avg_buf_msgs     0.004473                       # Average number of messages in buffer
system.ruby.network.int_link_buffers04.avg_stall_time  1499.863080                       # Average number of cycles messages are stalled in this MB
system.ruby.network.int_link_buffers05.avg_buf_msgs     0.010979                       # Average number of messages in buffer
system.ruby.network.int_link_buffers05.avg_stall_time  2295.250095                       # Average number of cycles messages are stalled in this MB
system.ruby.network.int_link_buffers08.avg_buf_msgs     0.004473                       # Average number of messages in buffer
system.ruby.network.int_link_buffers08.avg_stall_time  1498.132904                       # Average number of cycles messages are stalled in this MB
system.ruby.network.int_link_buffers11.avg_buf_msgs     0.006506                       # Average number of messages in buffer
system.ruby.network.int_link_buffers11.avg_stall_time  3293.860145                       # Average number of cycles messages are stalled in this MB
system.ruby.network.int_link_buffers12.avg_buf_msgs     0.007120                       # Average number of messages in buffer
system.ruby.network.int_link_buffers12.avg_stall_time  2499.875527                       # Average number of cycles messages are stalled in this MB
system.ruby.network.int_link_buffers14.avg_buf_msgs     0.010364                       # Average number of messages in buffer
system.ruby.network.int_link_buffers14.avg_stall_time  2497.045839                       # Average number of cycles messages are stalled in this MB
system.ruby.network.int_link_buffers16.avg_buf_msgs     0.004473                       # Average number of messages in buffer
system.ruby.network.int_link_buffers16.avg_stall_time  2499.730308                       # Average number of cycles messages are stalled in this MB
system.ruby.network.int_link_buffers17.avg_buf_msgs     0.004473                       # Average number of messages in buffer
system.ruby.network.int_link_buffers17.avg_stall_time  2496.456667                       # Average number of cycles messages are stalled in this MB
system.ruby.network.msg_byte.Request_Control        28224                      
system.ruby.network.msg_byte.ResponseL2hit_Data        21168                      
system.ruby.network.msg_byte.Response_Data       232848                      
system.ruby.network.msg_byte.Unblock_Control        29976                      
system.ruby.network.msg_byte.Writeback_Control         7056                      
system.ruby.network.msg_byte.Writeback_Data        15984                      
system.ruby.network.msg_count.Request_Control         3528                      
system.ruby.network.msg_count.ResponseL2hit_Data          294                      
system.ruby.network.msg_count.Response_Data         3234                      
system.ruby.network.msg_count.Unblock_Control         3747                      
system.ruby.network.msg_count.Writeback_Control          882                      
system.ruby.network.msg_count.Writeback_Data          222                      
system.ruby.network.routers0.msg_bytes.Request_Control::0         5096                      
system.ruby.network.routers0.msg_bytes.ResponseL2hit_Data::2         7056                      
system.ruby.network.routers0.msg_bytes.Response_Data::2        38808                      
system.ruby.network.routers0.msg_bytes.Unblock_Control::2         5680                      
system.ruby.network.routers0.msg_bytes.Writeback_Control::0         1176                      
system.ruby.network.routers0.msg_bytes.Writeback_Control::2         1176                      
system.ruby.network.routers0.msg_bytes.Writeback_Data::0         5328                      
system.ruby.network.routers0.msg_count.Request_Control::0          637                      
system.ruby.network.routers0.msg_count.ResponseL2hit_Data::2           98                      
system.ruby.network.routers0.msg_count.Response_Data::2          539                      
system.ruby.network.routers0.msg_count.Unblock_Control::2          710                      
system.ruby.network.routers0.msg_count.Writeback_Control::0          147                      
system.ruby.network.routers0.msg_count.Writeback_Control::2          147                      
system.ruby.network.routers0.msg_count.Writeback_Data::0           74                      
system.ruby.network.routers0.percent_links_utilized     1.667939                      
system.ruby.network.routers0.port_buffers02.avg_buf_msgs     0.006506                       # Average number of messages in buffer
system.ruby.network.routers0.port_buffers02.avg_stall_time  3793.175544                       # Average number of cycles messages are stalled in this MB
system.ruby.network.routers0.port_buffers03.avg_buf_msgs     0.007120                       # Average number of messages in buffer
system.ruby.network.routers0.port_buffers03.avg_stall_time   999.975105                       # Average number of cycles messages are stalled in this MB
system.ruby.network.routers0.port_buffers05.avg_buf_msgs     0.005892                       # Average number of messages in buffer
system.ruby.network.routers0.port_buffers05.avg_stall_time   998.647393                       # Average number of cycles messages are stalled in this MB
system.ruby.network.routers0.throttle0.link_utilization     2.439672                      
system.ruby.network.routers0.throttle0.msg_bytes.ResponseL2hit_Data::2         7056                      
system.ruby.network.routers0.throttle0.msg_bytes.Response_Data::2        38808                      
system.ruby.network.routers0.throttle0.msg_bytes.Writeback_Control::2         1176                      
system.ruby.network.routers0.throttle0.msg_count.ResponseL2hit_Data::2           98                      
system.ruby.network.routers0.throttle0.msg_count.Response_Data::2          539                      
system.ruby.network.routers0.throttle0.msg_count.Writeback_Control::2          147                      
system.ruby.network.routers0.throttle1.link_utilization     0.896206                      
system.ruby.network.routers0.throttle1.msg_bytes.Request_Control::0         5096                      
system.ruby.network.routers0.throttle1.msg_bytes.Unblock_Control::2         5680                      
system.ruby.network.routers0.throttle1.msg_bytes.Writeback_Control::0         1176                      
system.ruby.network.routers0.throttle1.msg_bytes.Writeback_Data::0         5328                      
system.ruby.network.routers0.throttle1.msg_count.Request_Control::0          637                      
system.ruby.network.routers0.throttle1.msg_count.Unblock_Control::2          710                      
system.ruby.network.routers0.throttle1.msg_count.Writeback_Control::0          147                      
system.ruby.network.routers0.throttle1.msg_count.Writeback_Data::0           74                      
system.ruby.network.routers1.msg_bytes.Request_Control::0         5096                      
system.ruby.network.routers1.msg_bytes.Request_Control::1         4312                      
system.ruby.network.routers1.msg_bytes.ResponseL2hit_Data::2         7056                      
system.ruby.network.routers1.msg_bytes.Response_Data::2        77616                      
system.ruby.network.routers1.msg_bytes.Unblock_Control::2         9992                      
system.ruby.network.routers1.msg_bytes.Writeback_Control::0         1176                      
system.ruby.network.routers1.msg_bytes.Writeback_Control::2         1176                      
system.ruby.network.routers1.msg_bytes.Writeback_Data::0         5328                      
system.ruby.network.routers1.msg_count.Request_Control::0          637                      
system.ruby.network.routers1.msg_count.Request_Control::1          539                      
system.ruby.network.routers1.msg_count.ResponseL2hit_Data::2           98                      
system.ruby.network.routers1.msg_count.Response_Data::2         1078                      
system.ruby.network.routers1.msg_count.Unblock_Control::2         1249                      
system.ruby.network.routers1.msg_count.Writeback_Control::0          147                      
system.ruby.network.routers1.msg_count.Writeback_Control::2          147                      
system.ruby.network.routers1.msg_count.Writeback_Data::0           74                      
system.ruby.network.routers1.percent_links_utilized     2.897940                      
system.ruby.network.routers1.port_buffers00.avg_buf_msgs     0.007120                       # Average number of messages in buffer
system.ruby.network.routers1.port_buffers00.avg_stall_time  2999.825738                       # Average number of cycles messages are stalled in this MB
system.ruby.network.routers1.port_buffers02.avg_buf_msgs     0.010364                       # Average number of messages in buffer
system.ruby.network.routers1.port_buffers02.avg_stall_time  2996.390281                       # Average number of cycles messages are stalled in this MB
system.ruby.network.routers1.port_buffers04.avg_buf_msgs     0.004473                       # Average number of messages in buffer
system.ruby.network.routers1.port_buffers04.avg_stall_time   999.917018                       # Average number of cycles messages are stalled in this MB
system.ruby.network.routers1.port_buffers05.avg_buf_msgs     0.010987                       # Average number of messages in buffer
system.ruby.network.routers1.port_buffers05.avg_stall_time  1795.909802                       # Average number of cycles messages are stalled in this MB
system.ruby.network.routers1.throttle0.link_utilization     2.908936                      
system.ruby.network.routers1.throttle0.msg_bytes.Request_Control::0         5096                      
system.ruby.network.routers1.throttle0.msg_bytes.Response_Data::2        38808                      
system.ruby.network.routers1.throttle0.msg_bytes.Unblock_Control::2         5680                      
system.ruby.network.routers1.throttle0.msg_bytes.Writeback_Control::0         1176                      
system.ruby.network.routers1.throttle0.msg_bytes.Writeback_Data::0         5328                      
system.ruby.network.routers1.throttle0.msg_count.Request_Control::0          637                      
system.ruby.network.routers1.throttle0.msg_count.Response_Data::2          539                      
system.ruby.network.routers1.throttle0.msg_count.Unblock_Control::2          710                      
system.ruby.network.routers1.throttle0.msg_count.Writeback_Control::0          147                      
system.ruby.network.routers1.throttle0.msg_count.Writeback_Data::0           74                      
system.ruby.network.routers1.throttle1.link_utilization     2.886945                      
system.ruby.network.routers1.throttle1.msg_bytes.Request_Control::1         4312                      
system.ruby.network.routers1.throttle1.msg_bytes.ResponseL2hit_Data::2         7056                      
system.ruby.network.routers1.throttle1.msg_bytes.Response_Data::2        38808                      
system.ruby.network.routers1.throttle1.msg_bytes.Unblock_Control::2         4312                      
system.ruby.network.routers1.throttle1.msg_bytes.Writeback_Control::2         1176                      
system.ruby.network.routers1.throttle1.msg_count.Request_Control::1          539                      
system.ruby.network.routers1.throttle1.msg_count.ResponseL2hit_Data::2           98                      
system.ruby.network.routers1.throttle1.msg_count.Response_Data::2          539                      
system.ruby.network.routers1.throttle1.msg_count.Unblock_Control::2          539                      
system.ruby.network.routers1.throttle1.msg_count.Writeback_Control::2          147                      
system.ruby.network.routers2.msg_bytes.Request_Control::1         4312                      
system.ruby.network.routers2.msg_bytes.Response_Data::2        38808                      
system.ruby.network.routers2.msg_bytes.Unblock_Control::2         4312                      
system.ruby.network.routers2.msg_count.Request_Control::1          539                      
system.ruby.network.routers2.msg_count.Response_Data::2          539                      
system.ruby.network.routers2.msg_count.Unblock_Control::2          539                      
system.ruby.network.routers2.percent_links_utilized     1.230001                      
system.ruby.network.routers2.port_buffers01.avg_buf_msgs     0.004473                       # Average number of messages in buffer
system.ruby.network.routers2.port_buffers01.avg_stall_time  2999.651475                       # Average number of cycles messages are stalled in this MB
system.ruby.network.routers2.port_buffers02.avg_buf_msgs     0.004473                       # Average number of messages in buffer
system.ruby.network.routers2.port_buffers02.avg_stall_time  2995.713978                       # Average number of cycles messages are stalled in this MB
system.ruby.network.routers2.port_buffers05.avg_buf_msgs     0.004473                       # Average number of messages in buffer
system.ruby.network.routers2.port_buffers05.avg_stall_time   998.763568                       # Average number of cycles messages are stalled in this MB
system.ruby.network.routers2.throttle0.link_utilization     0.447273                      
system.ruby.network.routers2.throttle0.msg_bytes.Request_Control::1         4312                      
system.ruby.network.routers2.throttle0.msg_bytes.Unblock_Control::2         4312                      
system.ruby.network.routers2.throttle0.msg_count.Request_Control::1          539                      
system.ruby.network.routers2.throttle0.msg_count.Unblock_Control::2          539                      
system.ruby.network.routers2.throttle1.link_utilization     2.012729                      
system.ruby.network.routers2.throttle1.msg_bytes.Response_Data::2        38808                      
system.ruby.network.routers2.throttle1.msg_count.Response_Data::2          539                      
system.ruby.network.routers3.msg_bytes.Request_Control::0         5096                      
system.ruby.network.routers3.msg_bytes.Request_Control::1         4312                      
system.ruby.network.routers3.msg_bytes.ResponseL2hit_Data::2         7056                      
system.ruby.network.routers3.msg_bytes.Response_Data::2        77616                      
system.ruby.network.routers3.msg_bytes.Unblock_Control::2         9992                      
system.ruby.network.routers3.msg_bytes.Writeback_Control::0         1176                      
system.ruby.network.routers3.msg_bytes.Writeback_Control::2         1176                      
system.ruby.network.routers3.msg_bytes.Writeback_Data::0         5328                      
system.ruby.network.routers3.msg_count.Request_Control::0          637                      
system.ruby.network.routers3.msg_count.Request_Control::1          539                      
system.ruby.network.routers3.msg_count.ResponseL2hit_Data::2           98                      
system.ruby.network.routers3.msg_count.Response_Data::2         1078                      
system.ruby.network.routers3.msg_count.Unblock_Control::2         1249                      
system.ruby.network.routers3.msg_count.Writeback_Control::0          147                      
system.ruby.network.routers3.msg_count.Writeback_Control::2          147                      
system.ruby.network.routers3.msg_count.Writeback_Data::0           74                      
system.ruby.network.routers3.percent_links_utilized     1.931960                      
system.ruby.network.routers3.port_buffers02.avg_buf_msgs     0.006506                       # Average number of messages in buffer
system.ruby.network.routers3.port_buffers02.avg_stall_time  2794.536449                       # Average number of cycles messages are stalled in this MB
system.ruby.network.routers3.port_buffers03.avg_buf_msgs     0.007120                       # Average number of messages in buffer
system.ruby.network.routers3.port_buffers03.avg_stall_time  1999.917018                       # Average number of cycles messages are stalled in this MB
system.ruby.network.routers3.port_buffers05.avg_buf_msgs     0.010398                       # Average number of messages in buffer
system.ruby.network.routers3.port_buffers05.avg_stall_time  1997.693099                       # Average number of cycles messages are stalled in this MB
system.ruby.network.routers3.port_buffers07.avg_buf_msgs     0.004473                       # Average number of messages in buffer
system.ruby.network.routers3.port_buffers07.avg_stall_time  1999.800843                       # Average number of cycles messages are stalled in this MB
system.ruby.network.routers3.port_buffers08.avg_buf_msgs     0.004473                       # Average number of messages in buffer
system.ruby.network.routers3.port_buffers08.avg_stall_time  1997.191058                       # Average number of cycles messages are stalled in this MB
system.ruby.network.routers3.throttle0.link_utilization     2.439672                      
system.ruby.network.routers3.throttle0.msg_bytes.ResponseL2hit_Data::2         7056                      
system.ruby.network.routers3.throttle0.msg_bytes.Response_Data::2        38808                      
system.ruby.network.routers3.throttle0.msg_bytes.Writeback_Control::2         1176                      
system.ruby.network.routers3.throttle0.msg_count.ResponseL2hit_Data::2           98                      
system.ruby.network.routers3.throttle0.msg_count.Response_Data::2          539                      
system.ruby.network.routers3.throttle0.msg_count.Writeback_Control::2          147                      
system.ruby.network.routers3.throttle1.link_utilization     2.908936                      
system.ruby.network.routers3.throttle1.msg_bytes.Request_Control::0         5096                      
system.ruby.network.routers3.throttle1.msg_bytes.Response_Data::2        38808                      
system.ruby.network.routers3.throttle1.msg_bytes.Unblock_Control::2         5680                      
system.ruby.network.routers3.throttle1.msg_bytes.Writeback_Control::0         1176                      
system.ruby.network.routers3.throttle1.msg_bytes.Writeback_Data::0         5328                      
system.ruby.network.routers3.throttle1.msg_count.Request_Control::0          637                      
system.ruby.network.routers3.throttle1.msg_count.Response_Data::2          539                      
system.ruby.network.routers3.throttle1.msg_count.Unblock_Control::2          710                      
system.ruby.network.routers3.throttle1.msg_count.Writeback_Control::0          147                      
system.ruby.network.routers3.throttle1.msg_count.Writeback_Data::0           74                      
system.ruby.network.routers3.throttle2.link_utilization     0.447273                      
system.ruby.network.routers3.throttle2.msg_bytes.Request_Control::1         4312                      
system.ruby.network.routers3.throttle2.msg_bytes.Unblock_Control::2         4312                      
system.ruby.network.routers3.throttle2.msg_count.Request_Control::1          539                      
system.ruby.network.routers3.throttle2.msg_count.Unblock_Control::2          539                      
system.ruby.outstanding_req_hist_seqr::bucket_size            1                      
system.ruby.outstanding_req_hist_seqr::max_bucket            9                      
system.ruby.outstanding_req_hist_seqr::samples        19127                      
system.ruby.outstanding_req_hist_seqr::mean     1.002510                      
system.ruby.outstanding_req_hist_seqr::gmean     1.001741                      
system.ruby.outstanding_req_hist_seqr::stdev     0.050034                      
system.ruby.outstanding_req_hist_seqr    |           0      0.00%      0.00% |       19079     99.75%     99.75% |          48      0.25%    100.00% |           0      0.00%    100.00% |           0      0.00%    100.00% |           0      0.00%    100.00% |           0      0.00%    100.00% |           0      0.00%    100.00% |           0      0.00%    100.00% |           0      0.00%    100.00%
system.ruby.outstanding_req_hist_seqr::total        19127                      
system.clk_domain.clock                          1000                       # Clock period in ticks
system.cpu.dtb.instHits                             0                       # ITB inst hits
system.cpu.dtb.instMisses                           0                       # ITB inst misses
system.cpu.dtb.readHits                             0                       # DTB read hits
system.cpu.dtb.readMisses                           0                       # DTB read misses
system.cpu.dtb.writeHits                            0                       # DTB write hits
system.cpu.dtb.writeMisses                          0                       # DTB write misses
system.cpu.dtb.inserts                              0                       # Number of times an entry is inserted into the TLB
system.cpu.dtb.flushTlb                             0                       # Number of times complete TLB was flushed
system.cpu.dtb.flushTlbMva                          0                       # Number of times TLB was flushed by MVA
system.cpu.dtb.flushTlbMvaAsid                      0                       # Number of times TLB was flushed by MVA & ASID
system.cpu.dtb.flushTlbAsid                         0                       # Number of times TLB was flushed by ASID
system.cpu.dtb.flushedEntries                       0                       # Number of entries that have been flushed from TLB
system.cpu.dtb.alignFaults                          0                       # Number of TLB faults due to alignment restrictions
system.cpu.dtb.prefetchFaults                       0                       # Number of TLB faults due to prefetch
system.cpu.dtb.domainFaults                         0                       # Number of TLB faults due to domain restrictions
system.cpu.dtb.permsFaults                          0                       # Number of TLB faults due to permissions restrictions
system.cpu.dtb.readAccesses                         0                       # DTB read accesses
system.cpu.dtb.writeAccesses                        0                       # DTB write accesses
system.cpu.dtb.instAccesses                         0                       # ITB inst accesses
system.cpu.dtb.hits                                 0                       # Total TLB (inst and data) hits
system.cpu.dtb.misses                               0                       # Total TLB (inst and data) misses
system.cpu.dtb.accesses                             0                       # Total TLB (inst and data) accesses
system.cpu.dtb.stage2_mmu.stage2_tlb.instHits            0                       # ITB inst hits
system.cpu.dtb.stage2_mmu.stage2_tlb.instMisses            0                       # ITB inst misses
system.cpu.dtb.stage2_mmu.stage2_tlb.readHits            0                       # DTB read hits
system.cpu.dtb.stage2_mmu.stage2_tlb.readMisses            0                       # DTB read misses
system.cpu.dtb.stage2_mmu.stage2_tlb.writeHits            0                       # DTB write hits
system.cpu.dtb.stage2_mmu.stage2_tlb.writeMisses            0                       # DTB write misses
system.cpu.dtb.stage2_mmu.stage2_tlb.inserts            0                       # Number of times an entry is inserted into the TLB
system.cpu.dtb.stage2_mmu.stage2_tlb.flushTlb            0                       # Number of times complete TLB was flushed
system.cpu.dtb.stage2_mmu.stage2_tlb.flushTlbMva            0                       # Number of times TLB was flushed by MVA
system.cpu.dtb.stage2_mmu.stage2_tlb.flushTlbMvaAsid            0                       # Number of times TLB was flushed by MVA & ASID
system.cpu.dtb.stage2_mmu.stage2_tlb.flushTlbAsid            0                       # Number of times TLB was flushed by ASID
system.cpu.dtb.stage2_mmu.stage2_tlb.flushedEntries            0                       # Number of entries that have been flushed from TLB
system.cpu.dtb.stage2_mmu.stage2_tlb.alignFaults            0                       # Number of TLB faults due to alignment restrictions
system.cpu.dtb.stage2_mmu.stage2_tlb.prefetchFaults            0                       # Number of TLB faults due to prefetch
system.cpu.dtb.stage2_mmu.stage2_tlb.domainFaults            0                       # Number of TLB faults due to domain restrictions
system.cpu.dtb.stage2_mmu.stage2_tlb.permsFaults            0                       # Number of TLB faults due to permissions restrictions
system.cpu.dtb.stage2_mmu.stage2_tlb.readAccesses            0                       # DTB read accesses
system.cpu.dtb.stage2_mmu.stage2_tlb.writeAccesses            0                       # DTB write accesses
system.cpu.dtb.stage2_mmu.stage2_tlb.instAccesses            0                       # ITB inst accesses
system.cpu.dtb.stage2_mmu.stage2_tlb.hits            0                       # Total TLB (inst and data) hits
system.cpu.dtb.stage2_mmu.stage2_tlb.misses            0                       # Total TLB (inst and data) misses
system.cpu.dtb.stage2_mmu.stage2_tlb.accesses            0                       # Total TLB (inst and data) accesses
system.cpu.dtb.stage2_mmu.stage2_tlb.walker.walks            0                       # Table walker walks requested
system.cpu.dtb.stage2_mmu.stage2_tlb.walker.requestOrigin_Requested::Data            0                       # Table walker requests started/completed, data/inst
system.cpu.dtb.stage2_mmu.stage2_tlb.walker.requestOrigin_Requested::Inst            0                       # Table walker requests started/completed, data/inst
system.cpu.dtb.stage2_mmu.stage2_tlb.walker.requestOrigin_Requested::total            0                       # Table walker requests started/completed, data/inst
system.cpu.dtb.stage2_mmu.stage2_tlb.walker.requestOrigin_Completed::Data            0                       # Table walker requests started/completed, data/inst
system.cpu.dtb.stage2_mmu.stage2_tlb.walker.requestOrigin_Completed::Inst            0                       # Table walker requests started/completed, data/inst
system.cpu.dtb.stage2_mmu.stage2_tlb.walker.requestOrigin_Completed::total            0                       # Table walker requests started/completed, data/inst
system.cpu.dtb.stage2_mmu.stage2_tlb.walker.requestOrigin::total            0                       # Table walker requests started/completed, data/inst
system.cpu.dtb.stage2_mmu.stage2_tlb.walker.power_state.pwrStateResidencyTicks::UNDEFINED     60254000                       # Cumulative time (in ticks) in various power states
system.cpu.dtb.walker.walks                         0                       # Table walker walks requested
system.cpu.dtb.walker.requestOrigin_Requested::Data            0                       # Table walker requests started/completed, data/inst
system.cpu.dtb.walker.requestOrigin_Requested::Inst            0                       # Table walker requests started/completed, data/inst
system.cpu.dtb.walker.requestOrigin_Requested::total            0                       # Table walker requests started/completed, data/inst
system.cpu.dtb.walker.requestOrigin_Completed::Data            0                       # Table walker requests started/completed, data/inst
system.cpu.dtb.walker.requestOrigin_Completed::Inst            0                       # Table walker requests started/completed, data/inst
system.cpu.dtb.walker.requestOrigin_Completed::total            0                       # Table walker requests started/completed, data/inst
system.cpu.dtb.walker.requestOrigin::total            0                       # Table walker requests started/completed, data/inst
system.cpu.dtb.walker.power_state.pwrStateResidencyTicks::UNDEFINED     60254000                       # Cumulative time (in ticks) in various power states
system.cpu.itb.instHits                             0                       # ITB inst hits
system.cpu.itb.instMisses                           0                       # ITB inst misses
system.cpu.itb.readHits                             0                       # DTB read hits
system.cpu.itb.readMisses                           0                       # DTB read misses
system.cpu.itb.writeHits                            0                       # DTB write hits
system.cpu.itb.writeMisses                          0                       # DTB write misses
system.cpu.itb.inserts                              0                       # Number of times an entry is inserted into the TLB
system.cpu.itb.flushTlb                             0                       # Number of times complete TLB was flushed
system.cpu.itb.flushTlbMva                          0                       # Number of times TLB was flushed by MVA
system.cpu.itb.flushTlbMvaAsid                      0                       # Number of times TLB was flushed by MVA & ASID
system.cpu.itb.flushTlbAsid                         0                       # Number of times TLB was flushed by ASID
system.cpu.itb.flushedEntries                       0                       # Number of entries that have been flushed from TLB
system.cpu.itb.alignFaults                          0                       # Number of TLB faults due to alignment restrictions
system.cpu.itb.prefetchFaults                       0                       # Number of TLB faults due to prefetch
system.cpu.itb.domainFaults                         0                       # Number of TLB faults due to domain restrictions
system.cpu.itb.permsFaults                          0                       # Number of TLB faults due to permissions restrictions
system.cpu.itb.readAccesses                         0                       # DTB read accesses
system.cpu.itb.writeAccesses                        0                       # DTB write accesses
system.cpu.itb.instAccesses                         0                       # ITB inst accesses
system.cpu.itb.hits                                 0                       # Total TLB (inst and data) hits
system.cpu.itb.misses                               0                       # Total TLB (inst and data) misses
system.cpu.itb.accesses                             0                       # Total TLB (inst and data) accesses
system.cpu.itb.stage2_mmu.stage2_tlb.instHits            0                       # ITB inst hits
system.cpu.itb.stage2_mmu.stage2_tlb.instMisses            0                       # ITB inst misses
system.cpu.itb.stage2_mmu.stage2_tlb.readHits            0                       # DTB read hits
system.cpu.itb.stage2_mmu.stage2_tlb.readMisses            0                       # DTB read misses
system.cpu.itb.stage2_mmu.stage2_tlb.writeHits            0                       # DTB write hits
system.cpu.itb.stage2_mmu.stage2_tlb.writeMisses            0                       # DTB write misses
system.cpu.itb.stage2_mmu.stage2_tlb.inserts            0                       # Number of times an entry is inserted into the TLB
system.cpu.itb.stage2_mmu.stage2_tlb.flushTlb            0                       # Number of times complete TLB was flushed
system.cpu.itb.stage2_mmu.stage2_tlb.flushTlbMva            0                       # Number of times TLB was flushed by MVA
system.cpu.itb.stage2_mmu.stage2_tlb.flushTlbMvaAsid            0                       # Number of times TLB was flushed by MVA & ASID
system.cpu.itb.stage2_mmu.stage2_tlb.flushTlbAsid            0                       # Number of times TLB was flushed by ASID
system.cpu.itb.stage2_mmu.stage2_tlb.flushedEntries            0                       # Number of entries that have been flushed from TLB
system.cpu.itb.stage2_mmu.stage2_tlb.alignFaults            0                       # Number of TLB faults due to alignment restrictions
system.cpu.itb.stage2_mmu.stage2_tlb.prefetchFaults            0                       # Number of TLB faults due to prefetch
system.cpu.itb.stage2_mmu.stage2_tlb.domainFaults            0                       # Number of TLB faults due to domain restrictions
system.cpu.itb.stage2_mmu.stage2_tlb.permsFaults            0                       # Number of TLB faults due to permissions restrictions
system.cpu.itb.stage2_mmu.stage2_tlb.readAccesses            0                       # DTB read accesses
system.cpu.itb.stage2_mmu.stage2_tlb.writeAccesses            0                       # DTB write accesses
system.cpu.itb.stage2_mmu.stage2_tlb.instAccesses            0                       # ITB inst accesses
system.cpu.itb.stage2_mmu.stage2_tlb.hits            0                       # Total TLB (inst and data) hits
system.cpu.itb.stage2_mmu.stage2_tlb.misses            0                       # Total TLB (inst and data) misses
system.cpu.itb.stage2_mmu.stage2_tlb.accesses            0                       # Total TLB (inst and data) accesses
system.cpu.itb.stage2_mmu.stage2_tlb.walker.walks            0                       # Table walker walks requested
system.cpu.itb.stage2_mmu.stage2_tlb.walker.requestOrigin_Requested::Data            0                       # Table walker requests started/completed, data/inst
system.cpu.itb.stage2_mmu.stage2_tlb.walker.requestOrigin_Requested::Inst            0                       # Table walker requests started/completed, data/inst
system.cpu.itb.stage2_mmu.stage2_tlb.walker.requestOrigin_Requested::total            0                       # Table walker requests started/completed, data/inst
system.cpu.itb.stage2_mmu.stage2_tlb.walker.requestOrigin_Completed::Data            0                       # Table walker requests started/completed, data/inst
system.cpu.itb.stage2_mmu.stage2_tlb.walker.requestOrigin_Completed::Inst            0                       # Table walker requests started/completed, data/inst
system.cpu.itb.stage2_mmu.stage2_tlb.walker.requestOrigin_Completed::total            0                       # Table walker requests started/completed, data/inst
system.cpu.itb.stage2_mmu.stage2_tlb.walker.requestOrigin::total            0                       # Table walker requests started/completed, data/inst
system.cpu.itb.stage2_mmu.stage2_tlb.walker.power_state.pwrStateResidencyTicks::UNDEFINED     60254000                       # Cumulative time (in ticks) in various power states
system.cpu.itb.walker.walks                         0                       # Table walker walks requested
system.cpu.itb.walker.requestOrigin_Requested::Data            0                       # Table walker requests started/completed, data/inst
system.cpu.itb.walker.requestOrigin_Requested::Inst            0                       # Table walker requests started/completed, data/inst
system.cpu.itb.walker.requestOrigin_Requested::total            0                       # Table walker requests started/completed, data/inst
system.cpu.itb.walker.requestOrigin_Completed::Data            0                       # Table walker requests started/completed, data/inst
system.cpu.itb.walker.requestOrigin_Completed::Inst            0                       # Table walker requests started/completed, data/inst
system.cpu.itb.walker.requestOrigin_Completed::total            0                       # Table walker requests started/completed, data/inst
system.cpu.itb.walker.requestOrigin::total            0                       # Table walker requests started/completed, data/inst
system.cpu.itb.walker.power_state.pwrStateResidencyTicks::UNDEFINED     60254000                       # Cumulative time (in ticks) in various power states
system.cpu.power_state.pwrStateResidencyTicks::ON     60254000                       # Cumulative time (in ticks) in various power states
system.cpu.thread_0.numInsts                        0                       # Number of Instructions committed
system.cpu.thread_0.numOps                          0                       # Number of Ops committed
system.cpu.thread_0.numMemRefs                      0                       # Number of Memory References
system.cpu_clk_domain.clock                       500                       # Clock period in ticks
system.cpu_voltage_domain.voltage                   1                       # Voltage in Volts
system.mem_ctrls.avgPriority_.ruby.dir_cntrl0::samples      1078.00                       # Average QoS priority value for accepted requests
system.mem_ctrls.priorityMinLatency      0.000000019000                       # per QoS priority minimum request to response latency (s)
system.mem_ctrls.priorityMaxLatency      0.000000561000                       # per QoS priority maximum request to response latency (s)
system.mem_ctrls.numReadWriteTurnArounds            0                       # Number of turnarounds from READ to WRITE
system.mem_ctrls.numWriteReadTurnArounds            0                       # Number of turnarounds from WRITE to READ
system.mem_ctrls.numStayReadState                1631                       # Number of times bus staying in READ state
system.mem_ctrls.numStayWriteState                  0                       # Number of times bus staying in WRITE state
system.mem_ctrls.readReqs                         539                       # Number of read requests accepted
system.mem_ctrls.writeReqs                          0                       # Number of write requests accepted
system.mem_ctrls.readBursts                      1078                       # Number of controller read bursts, including those serviced by the write queue
system.mem_ctrls.writeBursts                        0                       # Number of controller write bursts, including those merged in the write queue
system.mem_ctrls.servicedByWrQ                      0                       # Number of controller read bursts serviced by the write queue
system.mem_ctrls.mergedWrBursts                     0                       # Number of controller write bursts merged with an existing one
system.mem_ctrls.neitherReadNorWriteReqs            0                       # Number of requests that are neither read nor write
system.mem_ctrls.avgRdQLen                       2.01                       # Average read queue length when enqueuing
system.mem_ctrls.avgWrQLen                       0.00                       # Average write queue length when enqueuing
system.mem_ctrls.numRdRetry                         0                       # Number of times read queue was full causing retry
system.mem_ctrls.numWrRetry                         0                       # Number of times write queue was full causing retry
system.mem_ctrls.readPktSize::0                     0                       # Read request sizes (log2)
system.mem_ctrls.readPktSize::1                     0                       # Read request sizes (log2)
system.mem_ctrls.readPktSize::2                     0                       # Read request sizes (log2)
system.mem_ctrls.readPktSize::3                     0                       # Read request sizes (log2)
system.mem_ctrls.readPktSize::4                     0                       # Read request sizes (log2)
system.mem_ctrls.readPktSize::5                  1078                       # Read request sizes (log2)
system.mem_ctrls.readPktSize::6                     0                       # Read request sizes (log2)
system.mem_ctrls.writePktSize::0                    0                       # Write request sizes (log2)
system.mem_ctrls.writePktSize::1                    0                       # Write request sizes (log2)
system.mem_ctrls.writePktSize::2                    0                       # Write request sizes (log2)
system.mem_ctrls.writePktSize::3                    0                       # Write request sizes (log2)
system.mem_ctrls.writePktSize::4                    0                       # Write request sizes (log2)
system.mem_ctrls.writePktSize::5                    0                       # Write request sizes (log2)
system.mem_ctrls.writePktSize::6                    0                       # Write request sizes (log2)
system.mem_ctrls.rdQLenPdf::0                     537                       # What read queue length does an incoming req see
system.mem_ctrls.rdQLenPdf::1                     537                       # What read queue length does an incoming req see
system.mem_ctrls.rdQLenPdf::2                       2                       # What read queue length does an incoming req see
system.mem_ctrls.rdQLenPdf::3                       2                       # What read queue length does an incoming req see
system.mem_ctrls.rdQLenPdf::4                       0                       # What read queue length does an incoming req see
system.mem_ctrls.rdQLenPdf::5                       0                       # What read queue length does an incoming req see
system.mem_ctrls.rdQLenPdf::6                       0                       # What read queue length does an incoming req see
system.mem_ctrls.rdQLenPdf::7                       0                       # What read queue length does an incoming req see
system.mem_ctrls.rdQLenPdf::8                       0                       # What read queue length does an incoming req see
system.mem_ctrls.rdQLenPdf::9                       0                       # What read queue length does an incoming req see
system.mem_ctrls.rdQLenPdf::10                      0                       # What read queue length does an incoming req see
system.mem_ctrls.rdQLenPdf::11                      0                       # What read queue length does an incoming req see
system.mem_ctrls.rdQLenPdf::12                      0                       # What read queue length does an incoming req see
system.mem_ctrls.rdQLenPdf::13                      0                       # What read queue length does an incoming req see
system.mem_ctrls.rdQLenPdf::14                      0                       # What read queue length does an incoming req see
system.mem_ctrls.rdQLenPdf::15                      0                       # What read queue length does an incoming req see
system.mem_ctrls.rdQLenPdf::16                      0                       # What read queue length does an incoming req see
system.mem_ctrls.rdQLenPdf::17                      0                       # What read queue length does an incoming req see
system.mem_ctrls.rdQLenPdf::18                      0                       # What read queue length does an incoming req see
system.mem_ctrls.rdQLenPdf::19                      0                       # What read queue length does an incoming req see
system.mem_ctrls.rdQLenPdf::20                      0                       # What read queue length does an incoming req see
system.mem_ctrls.rdQLenPdf::21                      0                       # What read queue length does an incoming req see
system.mem_ctrls.rdQLenPdf::22                      0                       # What read queue length does an incoming req see
system.mem_ctrls.rdQLenPdf::23                      0                       # What read queue length does an incoming req see
system.mem_ctrls.rdQLenPdf::24                      0                       # What read queue length does an incoming req see
system.mem_ctrls.rdQLenPdf::25                      0                       # What read queue length does an incoming req see
system.mem_ctrls.rdQLenPdf::26                      0                       # What read queue length does an incoming req see
system.mem_ctrls.rdQLenPdf::27                      0                       # What read queue length does an incoming req see
system.mem_ctrls.rdQLenPdf::28                      0                       # What read queue length does an incoming req see
system.mem_ctrls.rdQLenPdf::29                      0                       # What read queue length does an incoming req see
system.mem_ctrls.rdQLenPdf::30                      0                       # What read queue length does an incoming req see
system.mem_ctrls.rdQLenPdf::31                      0                       # What read queue length does an incoming req see
system.mem_ctrls.wrQLenPdf::0                       0                       # What write queue length does an incoming req see
system.mem_ctrls.wrQLenPdf::1                       0                       # What write queue length does an incoming req see
system.mem_ctrls.wrQLenPdf::2                       0                       # What write queue length does an incoming req see
[...]
system.mem_ctrls.wrQLenPdf::20                      0                       # What write queue length does an incoming req see
system.mem_ctrls.wrQLenPdf::21                      0                       # What write queue length does an incoming req see
system.mem_ctrls.wrQLenPdf::22                      0                       # What write queue length does an incoming req see
system.mem_ctrls.wrQLenPdf::23                      0                       # What write queue length does an incoming req see
system.mem_ctrls.wrQLenPdf::24                      0                       # What write queue length does an incoming req see
system.mem_ctrls.wrQLenPdf::25                      0                       # What write queue length does an incoming req see
system.mem_ctrls.wrQLenPdf::26                      0                       # What write queue length does an incoming req see
system.mem_ctrls.wrQLenPdf::27                      0                       # What write queue length does an incoming req see
system.mem_ctrls.wrQLenPdf::28                      0                       # What write queue length does an incoming req see
system.mem_ctrls.wrQLenPdf::29                      0                       # What write queue length does an incoming req see
system.mem_ctrls.wrQLenPdf::30                      0                       # What write queue length does an incoming req see
system.mem_ctrls.wrQLenPdf::31                      0                       # What write queue length does an incoming req see
system.mem_ctrls.wrQLenPdf::32                      0                       # What write queue length does an incoming req see
system.mem_ctrls.wrQLenPdf::33                      0                       # What write queue length does an incoming req see
system.mem_ctrls.wrQLenPdf::34                      0                       # What write queue length does an incoming req see
system.mem_ctrls.wrQLenPdf::35                      0                       # What write queue length does an incoming req see
system.mem_ctrls.wrQLenPdf::36                      0                       # What write queue length does an incoming req see
system.mem_ctrls.wrQLenPdf::37                      0                       # What write queue length does an incoming req see
system.mem_ctrls.wrQLenPdf::38                      0                       # What write queue length does an incoming req see
system.mem_ctrls.wrQLenPdf::39                      0                       # What write queue length does an incoming req see
system.mem_ctrls.wrQLenPdf::40                      0                       # What write queue length does an incoming req see
system.mem_ctrls.wrQLenPdf::41                      0                       # What write queue length does an incoming req see
system.mem_ctrls.wrQLenPdf::42                      0                       # What write queue length does an incoming req see
system.mem_ctrls.wrQLenPdf::43                      0                       # What write queue length does an incoming req see
system.mem_ctrls.wrQLenPdf::44                      0                       # What write queue length does an incoming req see
system.mem_ctrls.wrQLenPdf::45                      0                       # What write queue length does an incoming req see
system.mem_ctrls.wrQLenPdf::46                      0                       # What write queue length does an incoming req see
system.mem_ctrls.wrQLenPdf::47                      0                       # What write queue length does an incoming req see
system.mem_ctrls.wrQLenPdf::48                      0                       # What write queue length does an incoming req see
system.mem_ctrls.wrQLenPdf::49                      0                       # What write queue length does an incoming req see
system.mem_ctrls.wrQLenPdf::50                      0                       # What write queue length does an incoming req see
system.mem_ctrls.wrQLenPdf::51                      0                       # What write queue length does an incoming req see
system.mem_ctrls.wrQLenPdf::52                      0                       # What write queue length does an incoming req see
system.mem_ctrls.wrQLenPdf::53                      0                       # What write queue length does an incoming req see
system.mem_ctrls.wrQLenPdf::54                      0                       # What write queue length does an incoming req see
system.mem_ctrls.wrQLenPdf::55                      0                       # What write queue length does an incoming req see
system.mem_ctrls.wrQLenPdf::56                      0                       # What write queue length does an incoming req see
system.mem_ctrls.wrQLenPdf::57                      0                       # What write queue length does an incoming req see
system.mem_ctrls.wrQLenPdf::58                      0                       # What write queue length does an incoming req see
system.mem_ctrls.wrQLenPdf::59                      0                       # What write queue length does an incoming req see
system.mem_ctrls.wrQLenPdf::60                      0                       # What write queue length does an incoming req see
system.mem_ctrls.wrQLenPdf::61                      0                       # What write queue length does an incoming req see
system.mem_ctrls.wrQLenPdf::62                      0                       # What write queue length does an incoming req see
system.mem_ctrls.wrQLenPdf::63                      0                       # What write queue length does an incoming req see
system.mem_ctrls.bytesReadWrQ                       0                       # Total number of bytes read from write queue
system.mem_ctrls.bytesReadSys                   34496                       # Total read bytes from the system interface side
system.mem_ctrls.bytesWrittenSys                    0                       # Total written bytes from the system interface side
system.mem_ctrls.avgRdBWSys                    572.51                       # Average system read bandwidth in MiByte/s
system.mem_ctrls.avgWrBWSys                      0.00                       # Average system write bandwidth in MiByte/s
system.mem_ctrls.totGap                      60156000                       # Total gap between requests
system.mem_ctrls.avgGap                     111606.68                       # Average gap between requests
system.mem_ctrls.requestorReadBytes::.ruby.dir_cntrl0        34496                       # Per-requestor bytes read from memory
system.mem_ctrls.requestorReadRate::.ruby.dir_cntrl0 572509708.898994207382                       # Per-requestor bytes read from memory rate (Bytes/sec)
system.mem_ctrls.requestorReadAccesses::.ruby.dir_cntrl0         1078                       # Per-requestor read serviced memory accesses
system.mem_ctrls.requestorReadTotalLat::.ruby.dir_cntrl0     37571000                       # Per-requestor read total memory access latency
system.mem_ctrls.requestorReadAvgLat::.ruby.dir_cntrl0     34852.50                       # Per-requestor read average memory access latency
system.mem_ctrls.dram.bytes_read::.ruby.dir_cntrl0        34496                       # Number of bytes read from this memory
system.mem_ctrls.dram.bytes_read::total         34496                       # Number of bytes read from this memory
system.mem_ctrls.dram.num_reads::.ruby.dir_cntrl0          539                       # Number of read requests responded to by this memory
system.mem_ctrls.dram.num_reads::total            539                       # Number of read requests responded to by this memory
system.mem_ctrls.dram.bw_read::.ruby.dir_cntrl0    572509709                       # Total read bandwidth from this memory (bytes/s)
system.mem_ctrls.dram.bw_read::total        572509709                       # Total read bandwidth from this memory (bytes/s)
system.mem_ctrls.dram.bw_total::.ruby.dir_cntrl0    572509709                       # Total bandwidth to/from this memory (bytes/s)
system.mem_ctrls.dram.bw_total::total       572509709                       # Total bandwidth to/from this memory (bytes/s)
system.mem_ctrls.dram.readBursts                 1078                       # Number of DRAM read bursts
system.mem_ctrls.dram.writeBursts                   0                       # Number of DRAM write bursts
system.mem_ctrls.dram.perBankRdBursts::0           96                       # Per bank write bursts
system.mem_ctrls.dram.perBankRdBursts::1           96                       # Per bank write bursts
system.mem_ctrls.dram.perBankRdBursts::2           62                       # Per bank write bursts
system.mem_ctrls.dram.perBankRdBursts::3           56                       # Per bank write bursts
system.mem_ctrls.dram.perBankRdBursts::4           22                       # Per bank write bursts
system.mem_ctrls.dram.perBankRdBursts::5           20                       # Per bank write bursts
system.mem_ctrls.dram.perBankRdBursts::6           40                       # Per bank write bursts
system.mem_ctrls.dram.perBankRdBursts::7           56                       # Per bank write bursts
system.mem_ctrls.dram.perBankRdBursts::8           30                       # Per bank write bursts
system.mem_ctrls.dram.perBankRdBursts::9           64                       # Per bank write bursts
system.mem_ctrls.dram.perBankRdBursts::10           62                       # Per bank write bursts
system.mem_ctrls.dram.perBankRdBursts::11           86                       # Per bank write bursts
system.mem_ctrls.dram.perBankRdBursts::12           86                       # Per bank write bursts
system.mem_ctrls.dram.perBankRdBursts::13          112                       # Per bank write bursts
system.mem_ctrls.dram.perBankRdBursts::14           82                       # Per bank write bursts
system.mem_ctrls.dram.perBankRdBursts::15          108                       # Per bank write bursts
system.mem_ctrls.dram.perBankWrBursts::0            0                       # Per bank write bursts
system.mem_ctrls.dram.perBankWrBursts::1            0                       # Per bank write bursts
system.mem_ctrls.dram.perBankWrBursts::2            0                       # Per bank write bursts
system.mem_ctrls.dram.perBankWrBursts::3            0                       # Per bank write bursts
system.mem_ctrls.dram.perBankWrBursts::4            0                       # Per bank write bursts
system.mem_ctrls.dram.perBankWrBursts::5            0                       # Per bank write bursts
system.mem_ctrls.dram.perBankWrBursts::6            0                       # Per bank write bursts
system.mem_ctrls.dram.perBankWrBursts::7            0                       # Per bank write bursts
system.mem_ctrls.dram.perBankWrBursts::8            0                       # Per bank write bursts
system.mem_ctrls.dram.perBankWrBursts::9            0                       # Per bank write bursts
system.mem_ctrls.dram.perBankWrBursts::10            0                       # Per bank write bursts
system.mem_ctrls.dram.perBankWrBursts::11            0                       # Per bank write bursts
system.mem_ctrls.dram.perBankWrBursts::12            0                       # Per bank write bursts
system.mem_ctrls.dram.perBankWrBursts::13            0                       # Per bank write bursts
system.mem_ctrls.dram.perBankWrBursts::14            0                       # Per bank write bursts
system.mem_ctrls.dram.perBankWrBursts::15            0                       # Per bank write bursts
system.mem_ctrls.dram.totQLat                17089000                       # Total ticks spent queuing
system.mem_ctrls.dram.totBusLat               4312000                       # Total ticks spent in databus transfers
system.mem_ctrls.dram.totMemAccLat           37571000                       # Total ticks spent from burst creation until serviced by the DRAM
system.mem_ctrls.dram.avgQLat                15852.50                       # Average queueing delay per DRAM burst
system.mem_ctrls.dram.avgBusLat               4000.00                       # Average bus latency per DRAM burst
system.mem_ctrls.dram.avgMemAccLat           34852.50                       # Average memory access latency per DRAM burst
system.mem_ctrls.dram.readRowHits                 849                       # Number of row buffer hits during reads
system.mem_ctrls.dram.writeRowHits                  0                       # Number of row buffer hits during writes
system.mem_ctrls.dram.readRowHitRate            78.76                       # Row buffer hit rate for reads
system.mem_ctrls.dram.writeRowHitRate             nan                       # Row buffer hit rate for writes
system.mem_ctrls.dram.bytesPerActivate::samples          223                       # Bytes accessed per row activation
system.mem_ctrls.dram.bytesPerActivate::mean   150.959641                       # Bytes accessed per row activation
system.mem_ctrls.dram.bytesPerActivate::gmean   121.037514                       # Bytes accessed per row activation
system.mem_ctrls.dram.bytesPerActivate::stdev   110.793019                       # Bytes accessed per row activation
system.mem_ctrls.dram.bytesPerActivate::64-127           96     43.05%     43.05% # Bytes accessed per row activation
system.mem_ctrls.dram.bytesPerActivate::128-191           50     22.42%     65.47% # Bytes accessed per row activation
system.mem_ctrls.dram.bytesPerActivate::192-255           36     16.14%     81.61% # Bytes accessed per row activation
system.mem_ctrls.dram.bytesPerActivate::256-319           15      6.73%     88.34% # Bytes accessed per row activation
system.mem_ctrls.dram.bytesPerActivate::320-383           11      4.93%     93.27% # Bytes accessed per row activation
system.mem_ctrls.dram.bytesPerActivate::384-447            3      1.35%     94.62% # Bytes accessed per row activation
system.mem_ctrls.dram.bytesPerActivate::448-511            7      3.14%     97.76% # Bytes accessed per row activation
system.mem_ctrls.dram.bytesPerActivate::512-575            5      2.24%    100.00% # Bytes accessed per row activation
system.mem_ctrls.dram.bytesPerActivate::total          223                       # Bytes accessed per row activation
system.mem_ctrls.dram.bytesRead                 34496                       # Total number of bytes read from DRAM
system.mem_ctrls.dram.bytesWritten                  0                       # Total number of bytes written to DRAM
system.mem_ctrls.dram.avgRdBW              572.509709                       # Average DRAM read bandwidth in MiBytes/s
system.mem_ctrls.dram.avgWrBW                       0                       # Average DRAM write bandwidth in MiBytes/s
system.mem_ctrls.dram.peakBW                  8000.00                       # Theoretical peak bandwidth in MiByte/s
system.mem_ctrls.dram.busUtil                    7.16                       # Data bus utilization in percentage
system.mem_ctrls.dram.busUtilRead                7.16                       # Data bus utilization in percentage for reads
system.mem_ctrls.dram.busUtilWrite               0.00                       # Data bus utilization in percentage for writes
system.mem_ctrls.dram.pageHitRate               78.76                       # Row buffer hit rate, read and write combined
system.mem_ctrls.dram.power_state.pwrStateResidencyTicks::UNDEFINED     60254000                       # Cumulative time (in ticks) in various power states
system.mem_ctrls.dram.rank0.actEnergy               0                       # Energy for activate commands per rank (pJ)
system.mem_ctrls.dram.rank0.preEnergy               0                       # Energy for precharge commands per rank (pJ)
system.mem_ctrls.dram.rank0.readEnergy              0                       # Energy for read commands per rank (pJ)
system.mem_ctrls.dram.rank0.writeEnergy             0                       # Energy for write commands per rank (pJ)
system.mem_ctrls.dram.rank0.refreshEnergy            0                       # Energy for refresh commands per rank (pJ)
system.mem_ctrls.dram.rank0.actBackEnergy            0                       # Energy for active background per rank (pJ)
system.mem_ctrls.dram.rank0.preBackEnergy            0                       # Energy for precharge background per rank (pJ)
system.mem_ctrls.dram.rank0.actPowerDownEnergy            0                       # Energy for active power-down per rank (pJ)
system.mem_ctrls.dram.rank0.prePowerDownEnergy            0                       # Energy for precharge power-down per rank (pJ)
system.mem_ctrls.dram.rank0.selfRefreshEnergy            0                       # Energy for self refresh per rank (pJ)
system.mem_ctrls.dram.rank0.totalEnergy             0                       # Total energy per rank (pJ)
system.mem_ctrls.dram.rank0.averagePower            0                       # Core power per rank (mW)
system.mem_ctrls.dram.rank0.totalIdleTime            0                       # Total Idle time Per DRAM Rank
system.mem_ctrls.dram.rank0.pwrStateTime::IDLE       494000                       # Time in different power states
system.mem_ctrls.dram.rank0.pwrStateTime::REF      3900000                       # Time in different power states
system.mem_ctrls.dram.rank0.pwrStateTime::SREF            0                       # Time in different power states
system.mem_ctrls.dram.rank0.pwrStateTime::PRE_PDN            0                       # Time in different power states
system.mem_ctrls.dram.rank0.pwrStateTime::ACT     55860000                       # Time in different power states
system.mem_ctrls.dram.rank0.pwrStateTime::ACT_PDN            0                       # Time in different power states
system.mem_ctrls.power_state.pwrStateResidencyTicks::UNDEFINED     60254000                       # Cumulative time (in ticks) in various power states
system.ruby.clk_domain.clock                      500                       # Clock period in ticks
system.ruby.dir_cntrl0.power_state.pwrStateResidencyTicks::UNDEFINED     60254000                       # Cumulative time (in ticks) in various power states
system.ruby.l1_cntrl0.power_state.pwrStateResidencyTicks::UNDEFINED     60254000                       # Cumulative time (in ticks) in various power states
system.ruby.l1_cntrl0.sequencer.power_state.pwrStateResidencyTicks::UNDEFINED     60254000                       # Cumulative time (in ticks) in various power states
system.ruby.l2_cntrl0.power_state.pwrStateResidencyTicks::UNDEFINED     60254000                       # Cumulative time (in ticks) in various power states
system.ruby.memctrl_clk_domain.clock             1500                       # Clock period in ticks
system.ruby.network.power_state.pwrStateResidencyTicks::UNDEFINED     60254000                       # Cumulative time (in ticks) in various power states
system.ruby.network.routers0.power_state.pwrStateResidencyTicks::UNDEFINED     60254000                       # Cumulative time (in ticks) in various power states
system.ruby.network.routers1.power_state.pwrStateResidencyTicks::UNDEFINED     60254000                       # Cumulative time (in ticks) in various power states
system.ruby.network.routers2.power_state.pwrStateResidencyTicks::UNDEFINED     60254000                       # Cumulative time (in ticks) in various power states
system.ruby.network.routers3.power_state.pwrStateResidencyTicks::UNDEFINED     60254000                       # Cumulative time (in ticks) in various power states
system.ruby.power_state.pwrStateResidencyTicks::UNDEFINED     60254000                       # Cumulative time (in ticks) in various power states
system.sys_port_proxy.power_state.pwrStateResidencyTicks::UNDEFINED     60254000                       # Cumulative time (in ticks) in various power states
system.voltage_domain.voltage                       1                       # Voltage in Volts

---------- End Simulation Statistics   ----------
