
---------- Begin Simulation Statistics ----------
final_tick                                   50603000                       # Number of ticks from beginning of simulation (restored from checkpoints and never reset)
host_inst_rate                                 515305                       # Simulator instruction rate (inst/s)
host_mem_usage                                 662648                       # Number of bytes of host memory used
host_op_rate                                   593183                       # Simulator op (including micro ops) rate (op/s)
host_seconds                                     0.02                       # Real time elapsed on the host
host_tick_rate                             2063941607                       # Simulator tick rate (ticks/s)
sim_freq                                 1000000000000                       # Frequency of simulated ticks
sim_insts                                       12564                       # Number of instructions simulated
sim_ops                                         14523                       # Number of ops (including micro ops) simulated
sim_seconds                                  0.000051                       # Number of seconds simulated
sim_ticks                                    50603000                       # Number of ticks simulated
system.cpu.Branches                              2586                       # Number of branches fetched
system.cpu.committedInsts                       12564                       # Number of instructions committed
system.cpu.committedOps                         14523                       # Number of ops (including micro ops) committed
system.cpu.idle_fraction                     0.000000                       # Percentage of idle cycles
system.cpu.not_idle_fraction                 1.000000                       # Percentage of non-idle cycles
system.cpu.numCycles                           101206                       # number of cpu cycles simulated
system.cpu.numWorkItemsCompleted                    0                       # number of work items this cpu completed
system.cpu.numWorkItemsStarted                      0                       # number of work items this cpu started
system.cpu.num_busy_cycles               101205.998000                       # Number of busy cycles
system.cpu.num_cc_register_reads                49834                       # number of times the CC registers were read
system.cpu.num_cc_register_writes                8233                       # number of times the CC registers were written
system.cpu.num_conditional_control_insts         1837                       # number of instructions that are conditional controls
system.cpu.num_fp_alu_accesses                      0                       # Number of float alu accesses
system.cpu.num_fp_insts                             0                       # number of float instructions
system.cpu.num_fp_register_reads                    0                       # number of times the floating registers were read
system.cpu.num_fp_register_writes                   0                       # number of times the floating registers were written
system.cpu.num_func_calls                         521                       # number of times a function call or return occured
system.cpu.num_idle_cycles                   0.002000                       # Number of idle cycles
system.cpu.num_int_alu_accesses                 12553                       # Number of integer alu accesses
system.cpu.num_int_insts                        12553                       # number of integer instructions
system.cpu.num_int_register_reads               20791                       # number of times the integer registers were read
system.cpu.num_int_register_writes               8715                       # number of times the integer registers were written
system.cpu.num_load_insts                        2187                       # Number of load instructions
system.cpu.num_mem_refs                          4364                       # number of memory refs
system.cpu.num_store_insts                       2177                       # Number of store instructions
system.cpu.num_vec_alu_accesses                     0                       # Number of vector alu accesses
system.cpu.num_vec_insts                            0                       # number of vector instructions
system.cpu.num_vec_register_reads                  99                       # number of times the vector registers were read
system.cpu.num_vec_register_writes                 63                       # number of times the vector registers were written
system.cpu.op_class::No_OpClass                     0      0.00%      0.00% # Class of executed instruction
system.cpu.op_class::IntAlu                     10149     69.22%     69.22% # Class of executed instruction
system.cpu.op_class::IntMult                       86      0.59%     69.81% # Class of executed instruction
system.cpu.op_class::IntDiv                         0      0.00%     69.81% # Class of executed instruction
system.cpu.op_class::FloatAdd                       0      0.00%     69.81% # Class of executed instruction
system.cpu.op_class::FloatCmp                       0      0.00%     69.81% # Class of executed instruction
system.cpu.op_class::FloatCvt                       0      0.00%     69.81% # Class of executed instruction
system.cpu.op_class::FloatMult                      0      0.00%     69.81% # Class of executed instruction
system.cpu.op_class::FloatMultAcc                   0      0.00%     69.81% # Class of executed instruction
system.cpu.op_class::FloatDiv                       0      0.00%     69.81% # Class of executed instruction
system.cpu.op_class::FloatMisc                      0      0.00%     69.81% # Class of executed instruction
system.cpu.op_class::FloatSqrt                      0      0.00%     69.81% # Class of executed instruction
system.cpu.op_class::SimdAdd                        0      0.00%     69.81% # Class of executed instruction
system.cpu.op_class::SimdAddAcc                     0      0.00%     69.81% # Class of executed instruction
system.cpu.op_class::SimdAlu                        0      0.00%     69.81% # Class of executed instruction
system.cpu.op_class::SimdCmp                        0      0.00%     69.81% # Class of executed instruction
system.cpu.op_class::SimdCvt                        0      0.00%     69.81% # Class of executed instruction
system.cpu.op_class::SimdMisc                       0      0.00%     69.81% # Class of executed instruction
system.cpu.op_class::SimdMult                       0      0.00%     69.81% # Class of executed instruction
system.cpu.op_class::SimdMultAcc                    0      0.00%     69.81% # Class of executed instruction
system.cpu.op_class::SimdShift                      0      0.00%     69.81% # Class of executed instruction
system.cpu.op_class::SimdShiftAcc                   0      0.00%     69.81% # Class of executed instruction
system.cpu.op_class::SimdDiv                        0      0.00%     69.81% # Class of executed instruction
system.cpu.op_class::SimdSqrt                       0      0.00%     69.81% # Class of executed instruction
system.cpu.op_class::SimdFloatAdd                   0      0.00%     69.81% # Class of executed instruction
system.cpu.op_class::SimdFloatAlu                   0      0.00%     69.81% # Class of executed instruction
system.cpu.op_class::SimdFloatCmp                   3      0.02%     69.83% # Class of executed instruction
system.cpu.op_class::SimdFloatCvt                   3      0.02%     69.85% # Class of executed instruction
system.cpu.op_class::SimdFloatDiv                   0      0.00%     69.85% # Class of executed instruction
system.cpu.op_class::SimdFloatMisc                 55      0.38%     70.23% # Class of executed instruction
system.cpu.op_class::SimdFloatMult                  1      0.01%     70.23% # Class of executed instruction
system.cpu.op_class::SimdFloatMultAcc               0      0.00%     70.23% # Class of executed instruction
system.cpu.op_class::SimdFloatSqrt                  0      0.00%     70.23% # Class of executed instruction
system.cpu.op_class::SimdReduceAdd                  0      0.00%     70.23% # Class of executed instruction
system.cpu.op_class::SimdReduceAlu                  0      0.00%     70.23% # Class of executed instruction
system.cpu.op_class::SimdReduceCmp                  0      0.00%     70.23% # Class of executed instruction
system.cpu.op_class::SimdFloatReduceAdd             0      0.00%     70.23% # Class of executed instruction
system.cpu.op_class::SimdFloatReduceCmp             0      0.00%     70.23% # Class of executed instruction
system.cpu.op_class::SimdAes                        0      0.00%     70.23% # Class of executed instruction
system.cpu.op_class::SimdAesMix                     0      0.00%     70.23% # Class of executed instruction
system.cpu.op_class::SimdSha1Hash                   0      0.00%     70.23% # Class of executed instruction
system.cpu.op_class::SimdSha1Hash2                  0      0.00%     70.23% # Class of executed instruction
system.cpu.op_class::SimdSha256Hash                 0      0.00%     70.23% # Class of executed instruction
system.cpu.op_class::SimdSha256Hash2                0      0.00%     70.23% # Class of executed instruction
system.cpu.op_class::SimdShaSigma2                  0      0.00%     70.23% # Class of executed instruction
system.cpu.op_class::SimdShaSigma3                  0      0.00%     70.23% # Class of executed instruction
system.cpu.op_class::SimdPredAlu                    0      0.00%     70.23% # Class of executed instruction
system.cpu.op_class::MemRead                     2187     14.92%     85.15% # Class of executed instruction
system.cpu.op_class::MemWrite                    2177     14.85%    100.00% # Class of executed instruction
system.cpu.op_class::FloatMemRead                   0      0.00%    100.00% # Class of executed instruction
system.cpu.op_class::FloatMemWrite                  0      0.00%    100.00% # Class of executed instruction
system.cpu.op_class::IprAccess                      0      0.00%    100.00% # Class of executed instruction
system.cpu.op_class::InstPrefetch                   0      0.00%    100.00% # Class of executed instruction
system.cpu.op_class::total                      14661                       # Class of executed instruction
system.cpu.workload.numSyscalls                    11                       # Number of system calls
system.membus.snoop_filter.hit_multi_requests            4                       # Number of requests hitting in the snoop filter with multiple (>1) holders of the requested data.
system.membus.snoop_filter.hit_multi_snoops            0                       # Number of snoops hitting in the snoop filter with multiple (>1) holders of the requested data.
system.membus.snoop_filter.hit_single_requests           77                       # Number of requests hitting in the snoop filter with a single holder of the requested data.
system.membus.snoop_filter.hit_single_snoops            0                       # Number of snoops hitting in the snoop filter with a single holder of the requested data.
system.membus.snoop_filter.tot_requests           606                       # Total number of requests made to the snoop filter.
system.membus.snoop_filter.tot_snoops               0                       # Total number of snoops made to the snoop filter.
system.clk_domain.clock                          1000                       # Clock period in ticks
system.cpu.dcache.demand_hits::.cpu.data         4037                       # number of demand (read+write) hits
system.cpu.dcache.demand_hits::total             4037                       # number of demand (read+write) hits
system.cpu.dcache.overall_hits::.cpu.data         4059                       # number of overall hits
system.cpu.dcache.overall_hits::total            4059                       # number of overall hits
system.cpu.dcache.demand_misses::.cpu.data          179                       # number of demand (read+write) misses
system.cpu.dcache.demand_misses::total            179                       # number of demand (read+write) misses
system.cpu.dcache.overall_misses::.cpu.data          190                       # number of overall misses
system.cpu.dcache.overall_misses::total           190                       # number of overall misses
system.cpu.dcache.demand_miss_latency::.cpu.data     10271500                       # number of demand (read+write) miss cycles
system.cpu.dcache.demand_miss_latency::total     10271500                       # number of demand (read+write) miss cycles
system.cpu.dcache.overall_miss_latency::.cpu.data     10271500                       # number of overall miss cycles
system.cpu.dcache.overall_miss_latency::total     10271500                       # number of overall miss cycles
system.cpu.dcache.demand_accesses::.cpu.data         4216                       # number of demand (read+write) accesses
system.cpu.dcache.demand_accesses::total         4216                       # number of demand (read+write) accesses
system.cpu.dcache.overall_accesses::.cpu.data         4249                       # number of overall (read+write) accesses
system.cpu.dcache.overall_accesses::total         4249                       # number of overall (read+write) accesses
system.cpu.dcache.demand_miss_rate::.cpu.data     0.042457                       # miss rate for demand accesses
system.cpu.dcache.demand_miss_rate::total     0.042457                       # miss rate for demand accesses
system.cpu.dcache.overall_miss_rate::.cpu.data     0.044716                       # miss rate for overall accesses
system.cpu.dcache.overall_miss_rate::total     0.044716                       # miss rate for overall accesses
system.cpu.dcache.demand_avg_miss_latency::.cpu.data 57382.681564                       # average overall miss latency
system.cpu.dcache.demand_avg_miss_latency::total 57382.681564                       # average overall miss latency
system.cpu.dcache.overall_avg_miss_latency::.cpu.data 54060.526316                       # average overall miss latency
system.cpu.dcache.overall_avg_miss_latency::total 54060.526316                       # average overall miss latency
system.cpu.dcache.blocked_cycles::no_mshrs            0                       # number of cycles access was blocked
system.cpu.dcache.blocked_cycles::no_targets            0                       # number of cycles access was blocked
system.cpu.dcache.blocked::no_mshrs                 0                       # number of cycles access was blocked
system.cpu.dcache.blocked::no_targets               0                       # number of cycles access was blocked
system.cpu.dcache.avg_blocked_cycles::no_mshrs          nan                       # average number of cycles each access was blocked
system.cpu.dcache.avg_blocked_cycles::no_targets          nan                       # average number of cycles each access was blocked
system.cpu.dcache.demand_mshr_hits::.cpu.data            2                       # number of demand (read+write) MSHR hits
system.cpu.dcache.demand_mshr_hits::total            2                       # number of demand (read+write) MSHR hits
system.cpu.dcache.overall_mshr_hits::.cpu.data            2                       # number of overall MSHR hits
system.cpu.dcache.overall_mshr_hits::total            2                       # number of overall MSHR hits
system.cpu.dcache.demand_mshr_misses::.cpu.data          177                       # number of demand (read+write) MSHR misses
system.cpu.dcache.demand_mshr_misses::total          177                       # number of demand (read+write) MSHR misses
system.cpu.dcache.overall_mshr_misses::.cpu.data          186                       # number of overall MSHR misses
system.cpu.dcache.overall_mshr_misses::total          186                       # number of overall MSHR misses
system.cpu.dcache.demand_mshr_miss_latency::.cpu.data     10022500                       # number of demand (read+write) MSHR miss cycles
system.cpu.dcache.demand_mshr_miss_latency::total     10022500                       # number of demand (read+write) MSHR miss cycles
system.cpu.dcache.overall_mshr_miss_latency::.cpu.data     10769500                       # number of overall MSHR miss cycles
system.cpu.dcache.overall_mshr_miss_latency::total     10769500                       # number of overall MSHR miss cycles
system.cpu.dcache.demand_mshr_miss_rate::.cpu.data     0.041983                       # mshr miss rate for demand accesses
system.cpu.dcache.demand_mshr_miss_rate::total     0.041983                       # mshr miss rate for demand accesses
system.cpu.dcache.overall_mshr_miss_rate::.cpu.data     0.043775                       # mshr miss rate for overall accesses
system.cpu.dcache.overall_mshr_miss_rate::total     0.043775                       # mshr miss rate for overall accesses
system.cpu.dcache.demand_avg_mshr_miss_latency::.cpu.data 56624.293785                       # average overall mshr miss latency
system.cpu.dcache.demand_avg_mshr_miss_latency::total 56624.293785                       # average overall mshr miss latency
system.cpu.dcache.overall_avg_mshr_miss_latency::.cpu.data 57900.537634                       # average overall mshr miss latency
system.cpu.dcache.overall_avg_mshr_miss_latency::total 57900.537634                       # average overall mshr miss latency
system.cpu.dcache.replacements                      0                       # number of replacements
system.cpu.dcache.ReadReq_hits::.cpu.data         2013                       # number of ReadReq hits
system.cpu.dcache.ReadReq_hits::total            2013                       # number of ReadReq hits
system.cpu.dcache.ReadReq_misses::.cpu.data          106                       # number of ReadReq misses
system.cpu.dcache.ReadReq_misses::total           106                       # number of ReadReq misses
system.cpu.dcache.ReadReq_miss_latency::.cpu.data      6022000                       # number of ReadReq miss cycles
system.cpu.dcache.ReadReq_miss_latency::total      6022000                       # number of ReadReq miss cycles
system.cpu.dcache.ReadReq_accesses::.cpu.data         2119                       # number of ReadReq accesses(hits+misses)
system.cpu.dcache.ReadReq_accesses::total         2119                       # number of ReadReq accesses(hits+misses)
system.cpu.dcache.ReadReq_miss_rate::.cpu.data     0.050024                       # miss rate for ReadReq accesses
system.cpu.dcache.ReadReq_miss_rate::total     0.050024                       # miss rate for ReadReq accesses
system.cpu.dcache.ReadReq_avg_miss_latency::.cpu.data 56811.320755                       # average ReadReq miss latency
system.cpu.dcache.ReadReq_avg_miss_latency::total 56811.320755                       # average ReadReq miss latency
system.cpu.dcache.ReadReq_mshr_hits::.cpu.data            2                       # number of ReadReq MSHR hits
system.cpu.dcache.ReadReq_mshr_hits::total            2                       # number of ReadReq MSHR hits
system.cpu.dcache.ReadReq_mshr_misses::.cpu.data          104                       # number of ReadReq MSHR misses
system.cpu.dcache.ReadReq_mshr_misses::total          104                       # number of ReadReq MSHR misses
system.cpu.dcache.ReadReq_mshr_miss_latency::.cpu.data      5846000                       # number of ReadReq MSHR miss cycles
system.cpu.dcache.ReadReq_mshr_miss_latency::total      5846000                       # number of ReadReq MSHR miss cycles
system.cpu.dcache.ReadReq_mshr_miss_rate::.cpu.data     0.049080                       # mshr miss rate for ReadReq accesses
system.cpu.dcache.ReadReq_mshr_miss_rate::total     0.049080                       # mshr miss rate for ReadReq accesses
system.cpu.dcache.ReadReq_avg_mshr_miss_latency::.cpu.data 56211.538462                       # average ReadReq mshr miss latency
system.cpu.dcache.ReadReq_avg_mshr_miss_latency::total 56211.538462                       # average ReadReq mshr miss latency
system.cpu.dcache.WriteReq_hits::.cpu.data         2024                       # number of WriteReq hits
system.cpu.dcache.WriteReq_hits::total           2024                       # number of WriteReq hits
system.cpu.dcache.WriteReq_misses::.cpu.data           73                       # number of WriteReq misses
system.cpu.dcache.WriteReq_misses::total           73                       # number of WriteReq misses
system.cpu.dcache.WriteReq_miss_latency::.cpu.data      4249500                       # number of WriteReq miss cycles
system.cpu.dcache.WriteReq_miss_latency::total      4249500                       # number of WriteReq miss cycles
system.cpu.dcache.WriteReq_accesses::.cpu.data         2097                       # number of WriteReq accesses(hits+misses)
system.cpu.dcache.WriteReq_accesses::total         2097                       # number of WriteReq accesses(hits+misses)
system.cpu.dcache.WriteReq_miss_rate::.cpu.data     0.034812                       # miss rate for WriteReq accesses
system.cpu.dcache.WriteReq_miss_rate::total     0.034812                       # miss rate for WriteReq accesses
system.cpu.dcache.WriteReq_avg_miss_latency::.cpu.data 58212.328767                       # average WriteReq miss latency
system.cpu.dcache.WriteReq_avg_miss_latency::total 58212.328767                       # average WriteReq miss latency
system.cpu.dcache.WriteReq_mshr_misses::.cpu.data           73                       # number of WriteReq MSHR misses
system.cpu.dcache.WriteReq_mshr_misses::total           73                       # number of WriteReq MSHR misses
system.cpu.dcache.WriteReq_mshr_miss_latency::.cpu.data      4176500                       # number of WriteReq MSHR miss cycles
system.cpu.dcache.WriteReq_mshr_miss_latency::total      4176500                       # number of WriteReq MSHR miss cycles
system.cpu.dcache.WriteReq_mshr_miss_rate::.cpu.data     0.034812                       # mshr miss rate for WriteReq accesses
system.cpu.dcache.WriteReq_mshr_miss_rate::total     0.034812                       # mshr miss rate for WriteReq accesses
system.cpu.dcache.WriteReq_avg_mshr_miss_latency::.cpu.data 57212.328767                       # average WriteReq mshr miss latency
system.cpu.dcache.WriteReq_avg_mshr_miss_latency::total 57212.328767                       # average WriteReq mshr miss latency
system.cpu.dcache.SoftPFReq_hits::.cpu.data           22                       # number of SoftPFReq hits
system.cpu.dcache.SoftPFReq_hits::total            22                       # number of SoftPFReq hits
system.cpu.dcache.SoftPFReq_misses::.cpu.data           11                       # number of SoftPFReq misses
system.cpu.dcache.SoftPFReq_misses::total           11                       # number of SoftPFReq misses
system.cpu.dcache.SoftPFReq_accesses::.cpu.data           33                       # number of SoftPFReq accesses(hits+misses)
system.cpu.dcache.SoftPFReq_accesses::total           33                       # number of SoftPFReq accesses(hits+misses)
system.cpu.dcache.SoftPFReq_miss_rate::.cpu.data     0.333333                       # miss rate for SoftPFReq accesses
system.cpu.dcache.SoftPFReq_miss_rate::total     0.333333                       # miss rate for SoftPFReq accesses
system.cpu.dcache.SoftPFReq_mshr_misses::.cpu.data            9                       # number of SoftPFReq MSHR misses
system.cpu.dcache.SoftPFReq_mshr_misses::total            9                       # number of SoftPFReq MSHR misses
system.cpu.dcache.SoftPFReq_mshr_miss_latency::.cpu.data       747000                       # number of SoftPFReq MSHR miss cycles
system.cpu.dcache.SoftPFReq_mshr_miss_latency::total       747000                       # number of SoftPFReq MSHR miss cycles
system.cpu.dcache.SoftPFReq_mshr_miss_rate::.cpu.data     0.272727                       # mshr miss rate for SoftPFReq accesses
system.cpu.dcache.SoftPFReq_mshr_miss_rate::total     0.272727                       # mshr miss rate for SoftPFReq accesses
system.cpu.dcache.SoftPFReq_avg_mshr_miss_latency::.cpu.data        83000                       # average SoftPFReq mshr miss latency
system.cpu.dcache.SoftPFReq_avg_mshr_miss_latency::total        83000                       # average SoftPFReq mshr miss latency
system.cpu.dcache.LoadLockedReq_hits::.cpu.data           18                       # number of LoadLockedReq hits
system.cpu.dcache.LoadLockedReq_hits::total           18                       # number of LoadLockedReq hits
system.cpu.dcache.LoadLockedReq_accesses::.cpu.data           18                       # number of LoadLockedReq accesses(hits+misses)
system.cpu.dcache.LoadLockedReq_accesses::total           18                       # number of LoadLockedReq accesses(hits+misses)
system.cpu.dcache.StoreCondReq_hits::.cpu.data           18                       # number of StoreCondReq hits
system.cpu.dcache.StoreCondReq_hits::total           18                       # number of StoreCondReq hits
system.cpu.dcache.StoreCondReq_accesses::.cpu.data           18                       # number of StoreCondReq accesses(hits+misses)
system.cpu.dcache.StoreCondReq_accesses::total           18                       # number of StoreCondReq accesses(hits+misses)
system.cpu.dcache.power_state.pwrStateResidencyTicks::UNDEFINED     50603000                       # Cumulative time (in ticks) in various power states
system.cpu.dcache.tags.tagsinuse           114.763711                       # Cycle average of tags in use
system.cpu.dcache.tags.total_refs                4281                       # Total number of references to valid blocks.
system.cpu.dcache.tags.sampled_refs               186                       # Sample count of references to valid blocks.
system.cpu.dcache.tags.avg_refs             23.016129                       # Average number of references to valid blocks.
system.cpu.dcache.tags.warmup_cycle            148000                       # Cycle when the warmup percentage was hit.
system.cpu.dcache.tags.occ_blocks::.cpu.data   114.763711                       # Average occupied blocks per requestor
system.cpu.dcache.tags.occ_percent::.cpu.data     0.112074                       # Average percentage of cache occupancy
system.cpu.dcache.tags.occ_percent::total     0.112074                       # Average percentage of cache occupancy
system.cpu.dcache.tags.occ_task_id_blocks::1024          186                       # Occupied blocks per task id
system.cpu.dcache.tags.age_task_id_blocks_1024::0           14                       # Occupied blocks per task id
system.cpu.dcache.tags.age_task_id_blocks_1024::1          172                       # Occupied blocks per task id
system.cpu.dcache.tags.occ_task_id_percent::1024     0.181641                       # Percentage of cache occupancy per task id
system.cpu.dcache.tags.tag_accesses              8756                       # Number of tag accesses
system.cpu.dcache.tags.data_accesses             8756                       # Number of data accesses
system.cpu.dcache.tags.power_state.pwrStateResidencyTicks::UNDEFINED     50603000                       # Cumulative time (in ticks) in various power states
system.cpu.dtb.instHits                             0                       # ITB inst hits
system.cpu.dtb.instMisses                           0                       # ITB inst misses
system.cpu.dtb.readHits                             0                       # DTB read hits
system.cpu.dtb.readMisses                           0                       # DTB read misses
system.cpu.dtb.writeHits                            0                       # DTB write hits
system.cpu.dtb.writeMisses                          0                       # DTB write misses
system.cpu.dtb.inserts                              0                       # Number of times an entry is inserted into the TLB
system.cpu.dtb.flushTlb                             0                       # Number of times complete TLB was flushed
system.cpu.dtb.flushTlbMva                          0                       # Number of times TLB was flushed by MVA
system.cpu.dtb.flushTlbMvaAsid                      0                       # Number of times TLB was flushed by MVA & ASID
system.cpu.dtb.flushTlbAsid                         0                       # Number of times TLB was flushed by ASID
system.cpu.dtb.flushedEntries                       0                       # Number of entries that have been flushed from TLB
system.cpu.dtb.alignFaults                          0                       # Number of TLB faults due to alignment restrictions
system.cpu.dtb.prefetchFaults                       0                       # Number of TLB faults due to prefetch
system.cpu.dtb.domainFaults                         0                       # Number of TLB faults due to domain restrictions
system.cpu.dtb.permsFaults                          0                       # Number of TLB faults due to permissions restrictions
system.cpu.dtb.readAccesses                         0                       # DTB read accesses
system.cpu.dtb.writeAccesses                        0                       # DTB write accesses
system.cpu.dtb.instAccesses                         0                       # ITB inst accesses
system.cpu.dtb.hits                                 0                       # Total TLB (inst and data) hits
system.cpu.dtb.misses                               0                       # Total TLB (inst and data) misses
system.cpu.dtb.accesses                             0                       # Total TLB (inst and data) accesses
system.cpu.dtb.stage2_mmu.stage2_tlb.instHits            0                       # ITB inst hits
system.cpu.dtb.stage2_mmu.stage2_tlb.instMisses            0                       # ITB inst misses
system.cpu.dtb.stage2_mmu.stage2_tlb.readHits            0                       # DTB read hits
system.cpu.dtb.stage2_mmu.stage2_tlb.readMisses            0                       # DTB read misses
system.cpu.dtb.stage2_mmu.stage2_tlb.writeHits            0                       # DTB write hits
system.cpu.dtb.stage2_mmu.stage2_tlb.writeMisses            0                       # DTB write misses
system.cpu.dtb.stage2_mmu.stage2_tlb.inserts            0                       # Number of times an entry is inserted into the TLB
system.cpu.dtb.stage2_mmu.stage2_tlb.flushTlb            0                       # Number of times complete TLB was flushed
system.cpu.dtb.stage2_mmu.stage2_tlb.flushTlbMva            0                       # Number of times TLB was flushed by MVA
system.cpu.dtb.stage2_mmu.stage2_tlb.flushTlbMvaAsid            0                       # Number of times TLB was flushed by MVA & ASID
system.cpu.dtb.stage2_mmu.stage2_tlb.flushTlbAsid            0                       # Number of times TLB was flushed by ASID
system.cpu.dtb.stage2_mmu.stage2_tlb.flushedEntries            0                       # Number of entries that have been flushed from TLB
system.cpu.dtb.stage2_mmu.stage2_tlb.alignFaults            0                       # Number of TLB faults due to alignment restrictions
system.cpu.dtb.stage2_mmu.stage2_tlb.prefetchFaults            0                       # Number of TLB faults due to prefetch
system.cpu.dtb.stage2_mmu.stage2_tlb.domainFaults            0                       # Number of TLB faults due to domain restrictions
system.cpu.dtb.stage2_mmu.stage2_tlb.permsFaults            0                       # Number of TLB faults due to permissions restrictions
system.cpu.dtb.stage2_mmu.stage2_tlb.readAccesses            0                       # DTB read accesses
system.cpu.dtb.stage2_mmu.stage2_tlb.writeAccesses            0                       # DTB write accesses
system.cpu.dtb.stage2_mmu.stage2_tlb.instAccesses            0                       # ITB inst accesses
system.cpu.dtb.stage2_mmu.stage2_tlb.hits            0                       # Total TLB (inst and data) hits
system.cpu.dtb.stage2_mmu.stage2_tlb.misses            0                       # Total TLB (inst and data) misses
system.cpu.dtb.stage2_mmu.stage2_tlb.accesses            0                       # Total TLB (inst and data) accesses
system.cpu.dtb.stage2_mmu.stage2_tlb.walker.walks            0                       # Table walker walks requested
system.cpu.dtb.stage2_mmu.stage2_tlb.walker.requestOrigin_Requested::Data            0                       # Table walker requests started/completed, data/inst
system.cpu.dtb.stage2_mmu.stage2_tlb.walker.requestOrigin_Requested::Inst            0                       # Table walker requests started/completed, data/inst
system.cpu.dtb.stage2_mmu.stage2_tlb.walker.requestOrigin_Requested::total            0                       # Table walker requests started/completed, data/inst
system.cpu.dtb.stage2_mmu.stage2_tlb.walker.requestOrigin_Completed::Data            0                       # Table walker requests started/completed, data/inst
system.cpu.dtb.stage2_mmu.stage2_tlb.walker.requestOrigin_Completed::Inst            0                       # Table walker requests started/completed, data/inst
system.cpu.dtb.stage2_mmu.stage2_tlb.walker.requestOrigin_Completed::total            0                       # Table walker requests started/completed, data/inst
system.cpu.dtb.stage2_mmu.stage2_tlb.walker.requestOrigin::total            0                       # Table walker requests started/completed, data/inst
system.cpu.dtb.stage2_mmu.stage2_tlb.walker.power_state.pwrStateResidencyTicks::UNDEFINED     50603000                       # Cumulative time (in ticks) in various power states
system.cpu.dtb.walker.walks                         0                       # Table walker walks requested
system.cpu.dtb.walker.requestOrigin_Requested::Data            0                       # Table walker requests started/completed, data/inst
system.cpu.dtb.walker.requestOrigin_Requested::Inst            0                       # Table walker requests started/completed, data/inst
system.cpu.dtb.walker.requestOrigin_Requested::total            0                       # Table walker requests started/completed, data/inst
system.cpu.dtb.walker.requestOrigin_Completed::Data            0                       # Table walker requests started/completed, data/inst
system.cpu.dtb.walker.requestOrigin_Completed::Inst            0                       # Table walker requests started/completed, data/inst
system.cpu.dtb.walker.requestOrigin_Completed::total            0                       # Table walker requests started/completed, data/inst
system.cpu.dtb.walker.requestOrigin::total            0                       # Table walker requests started/completed, data/inst
system.cpu.dtb.walker.power_state.pwrStateResidencyTicks::UNDEFINED     50603000                       # Cumulative time (in ticks) in various power states
system.cpu.icache.demand_hits::.cpu.inst        14482                       # number of demand (read+write) hits
system.cpu.icache.demand_hits::total            14482                       # number of demand (read+write) hits
system.cpu.icache.overall_hits::.cpu.inst        14482                       # number of overall hits
system.cpu.icache.overall_hits::total           14482                       # number of overall hits
system.cpu.icache.demand_misses::.cpu.inst          360                       # number of demand (read+write) misses
system.cpu.icache.demand_misses::total            360                       # number of demand (read+write) misses
system.cpu.icache.overall_misses::.cpu.inst          360                       # number of overall misses
system.cpu.icache.overall_misses::total           360                       # number of overall misses
system.cpu.icache.demand_miss_latency::.cpu.inst     20844000                       # number of demand (read+write) miss cycles
system.cpu.icache.demand_miss_latency::total     20844000                       # number of demand (read+write) miss cycles
system.cpu.icache.overall_miss_latency::.cpu.inst     20844000                       # number of overall miss cycles
system.cpu.icache.overall_miss_latency::total     20844000                       # number of overall miss cycles
system.cpu.icache.demand_accesses::.cpu.inst        14842                       # number of demand (read+write) accesses
system.cpu.icache.demand_accesses::total        14842                       # number of demand (read+write) accesses
system.cpu.icache.overall_accesses::.cpu.inst        14842                       # number of overall (read+write) accesses
system.cpu.icache.overall_accesses::total        14842                       # number of overall (read+write) accesses
system.cpu.icache.demand_miss_rate::.cpu.inst     0.024255                       # miss rate for demand accesses
system.cpu.icache.demand_miss_rate::total     0.024255                       # miss rate for demand accesses
system.cpu.icache.overall_miss_rate::.cpu.inst     0.024255                       # miss rate for overall accesses
system.cpu.icache.overall_miss_rate::total     0.024255                       # miss rate for overall accesses
system.cpu.icache.demand_avg_miss_latency::.cpu.inst        57900                       # average overall miss latency
system.cpu.icache.demand_avg_miss_latency::total        57900                       # average overall miss latency
system.cpu.icache.overall_avg_miss_latency::.cpu.inst        57900                       # average overall miss latency
system.cpu.icache.overall_avg_miss_latency::total        57900                       # average overall miss latency
system.cpu.icache.blocked_cycles::no_mshrs            0                       # number of cycles access was blocked
system.cpu.icache.blocked_cycles::no_targets            0                       # number of cycles access was blocked
system.cpu.icache.blocked::no_mshrs                 0                       # number of cycles access was blocked
system.cpu.icache.blocked::no_targets               0                       # number of cycles access was blocked
system.cpu.icache.avg_blocked_cycles::no_mshrs          nan                       # average number of cycles each access was blocked
system.cpu.icache.avg_blocked_cycles::no_targets          nan                       # average number of cycles each access was blocked
system.cpu.icache.writebacks::.writebacks           60                       # number of writebacks
system.cpu.icache.writebacks::total                60                       # number of writebacks
system.cpu.icache.demand_mshr_misses::.cpu.inst          360                       # number of demand (read+write) MSHR misses
system.cpu.icache.demand_mshr_misses::total          360                       # number of demand (read+write) MSHR misses
system.cpu.icache.overall_mshr_misses::.cpu.inst          360                       # number of overall MSHR misses
system.cpu.icache.overall_mshr_misses::total          360                       # number of overall MSHR misses
system.cpu.icache.demand_mshr_miss_latency::.cpu.inst     20484000                       # number of demand (read+write) MSHR miss cycles
system.cpu.icache.demand_mshr_miss_latency::total     20484000                       # number of demand (read+write) MSHR miss cycles
system.cpu.icache.overall_mshr_miss_latency::.cpu.inst     20484000                       # number of overall MSHR miss cycles
system.cpu.icache.overall_mshr_miss_latency::total     20484000                       # number of overall MSHR miss cycles
system.cpu.icache.demand_mshr_miss_rate::.cpu.inst     0.024255                       # mshr miss rate for demand accesses
system.cpu.icache.demand_mshr_miss_rate::total     0.024255                       # mshr miss rate for demand accesses
system.cpu.icache.overall_mshr_miss_rate::.cpu.inst     0.024255                       # mshr miss rate for overall accesses
system.cpu.icache.overall_mshr_miss_rate::total     0.024255                       # mshr miss rate for overall accesses
system.cpu.icache.demand_avg_mshr_miss_latency::.cpu.inst        56900                       # average overall mshr miss latency
system.cpu.icache.demand_avg_mshr_miss_latency::total        56900                       # average overall mshr miss latency
system.cpu.icache.overall_avg_mshr_miss_latency::.cpu.inst        56900                       # average overall mshr miss latency
system.cpu.icache.overall_avg_mshr_miss_latency::total        56900                       # average overall mshr miss latency
system.cpu.icache.replacements                     60                       # number of replacements
system.cpu.icache.ReadReq_hits::.cpu.inst        14482                       # number of ReadReq hits
system.cpu.icache.ReadReq_hits::total           14482                       # number of ReadReq hits
system.cpu.icache.ReadReq_misses::.cpu.inst          360                       # number of ReadReq misses
system.cpu.icache.ReadReq_misses::total           360                       # number of ReadReq misses
system.cpu.icache.ReadReq_miss_latency::.cpu.inst     20844000                       # number of ReadReq miss cycles
system.cpu.icache.ReadReq_miss_latency::total     20844000                       # number of ReadReq miss cycles
system.cpu.icache.ReadReq_accesses::.cpu.inst        14842                       # number of ReadReq accesses(hits+misses)
system.cpu.icache.ReadReq_accesses::total        14842                       # number of ReadReq accesses(hits+misses)
system.cpu.icache.ReadReq_miss_rate::.cpu.inst     0.024255                       # miss rate for ReadReq accesses
system.cpu.icache.ReadReq_miss_rate::total     0.024255                       # miss rate for ReadReq accesses
system.cpu.icache.ReadReq_avg_miss_latency::.cpu.inst        57900                       # average ReadReq miss latency
system.cpu.icache.ReadReq_avg_miss_latency::total        57900                       # average ReadReq miss latency
system.cpu.icache.ReadReq_mshr_misses::.cpu.inst          360                       # number of ReadReq MSHR misses
system.cpu.icache.ReadReq_mshr_misses::total          360                       # number of ReadReq MSHR misses
system.cpu.icache.ReadReq_mshr_miss_latency::.cpu.inst     20484000                       # number of ReadReq MSHR miss cycles
system.cpu.icache.ReadReq_mshr_miss_latency::total     20484000                       # number of ReadReq MSHR miss cycles
system.cpu.icache.ReadReq_mshr_miss_rate::.cpu.inst     0.024255                       # mshr miss rate for ReadReq accesses
system.cpu.icache.ReadReq_mshr_miss_rate::total     0.024255                       # mshr miss rate for ReadReq accesses
system.cpu.icache.ReadReq_avg_mshr_miss_latency::.cpu.inst        56900                       # average ReadReq mshr miss latency
system.cpu.icache.ReadReq_avg_mshr_miss_latency::total        56900                       # average ReadReq mshr miss latency
system.cpu.icache.power_state.pwrStateResidencyTicks::UNDEFINED     50603000                       # Cumulative time (in ticks) in various power states
system.cpu.icache.tags.tagsinuse           156.418377                       # Cycle average of tags in use
system.cpu.icache.tags.total_refs               14842                       # Total number of references to valid blocks.
system.cpu.icache.tags.sampled_refs               360                       # Sample count of references to valid blocks.
system.cpu.icache.tags.avg_refs             41.227778                       # Average number of references to valid blocks.
system.cpu.icache.tags.warmup_cycle             77000                       # Cycle when the warmup percentage was hit.
system.cpu.icache.tags.occ_blocks::.cpu.inst   156.418377                       # Average occupied blocks per requestor
system.cpu.icache.tags.occ_percent::.cpu.inst     0.305505                       # Average percentage of cache occupancy
system.cpu.icache.tags.occ_percent::total     0.305505                       # Average percentage of cache occupancy
system.cpu.icache.tags.occ_task_id_blocks::1024          300                       # Occupied blocks per task id
system.cpu.icache.tags.age_task_id_blocks_1024::0           75                       # Occupied blocks per task id
system.cpu.icache.tags.age_task_id_blocks_1024::1          225                       # Occupied blocks per task id
system.cpu.icache.tags.occ_task_id_percent::1024     0.585938                       # Percentage of cache occupancy per task id
system.cpu.icache.tags.tag_accesses             30044                       # Number of tag accesses
system.cpu.icache.tags.data_accesses            30044                       # Number of data accesses
system.cpu.icache.tags.power_state.pwrStateResidencyTicks::UNDEFINED     50603000                       # Cumulative time (in ticks) in various power states
system.cpu.itb.instHits                             0                       # ITB inst hits
system.cpu.itb.instMisses                           0                       # ITB inst misses
system.cpu.itb.readHits                             0                       # DTB read hits
system.cpu.itb.readMisses                           0                       # DTB read misses
system.cpu.itb.writeHits                            0                       # DTB write hits
system.cpu.itb.writeMisses                          0                       # DTB write misses
system.cpu.itb.inserts                              0                       # Number of times an entry is inserted into the TLB
system.cpu.itb.flushTlb                             0                       # Number of times complete TLB was flushed
system.cpu.itb.flushTlbMva                          0                       # Number of times TLB was flushed by MVA
system.cpu.itb.flushTlbMvaAsid                      0                       # Number of times TLB was flushed by MVA & ASID
system.cpu.itb.flushTlbAsid                         0                       # Number of times TLB was flushed by ASID
system.cpu.itb.flushedEntries                       0                       # Number of entries that have been flushed from TLB
system.cpu.itb.alignFaults                          0                       # Number of TLB faults due to alignment restrictions
system.cpu.itb.prefetchFaults                       0                       # Number of TLB faults due to prefetch
system.cpu.itb.domainFaults                         0                       # Number of TLB faults due to domain restrictions
system.cpu.itb.permsFaults                          0                       # Number of TLB faults due to permissions restrictions
system.cpu.itb.readAccesses                         0                       # DTB read accesses
system.cpu.itb.writeAccesses                        0                       # DTB write accesses
system.cpu.itb.instAccesses                         0                       # ITB inst accesses
system.cpu.itb.hits                                 0                       # Total TLB (inst and data) hits
system.cpu.itb.misses                               0                       # Total TLB (inst and data) misses
system.cpu.itb.accesses                             0                       # Total TLB (inst and data) accesses
system.cpu.itb.stage2_mmu.stage2_tlb.instHits            0                       # ITB inst hits
system.cpu.itb.stage2_mmu.stage2_tlb.instMisses            0                       # ITB inst misses
system.cpu.itb.stage2_mmu.stage2_tlb.readHits            0                       # DTB read hits
system.cpu.itb.stage2_mmu.stage2_tlb.readMisses            0                       # DTB read misses
system.cpu.itb.stage2_mmu.stage2_tlb.writeHits            0                       # DTB write hits
system.cpu.itb.stage2_mmu.stage2_tlb.writeMisses            0                       # DTB write misses
system.cpu.itb.stage2_mmu.stage2_tlb.inserts            0                       # Number of times an entry is inserted into the TLB
system.cpu.itb.stage2_mmu.stage2_tlb.flushTlb            0                       # Number of times complete TLB was flushed
system.cpu.itb.stage2_mmu.stage2_tlb.flushTlbMva            0                       # Number of times TLB was flushed by MVA
system.cpu.itb.stage2_mmu.stage2_tlb.flushTlbMvaAsid            0                       # Number of times TLB was flushed by MVA & ASID
system.cpu.itb.stage2_mmu.stage2_tlb.flushTlbAsid            0                       # Number of times TLB was flushed by ASID
system.cpu.itb.stage2_mmu.stage2_tlb.flushedEntries            0                       # Number of entries that have been flushed from TLB
system.cpu.itb.stage2_mmu.stage2_tlb.alignFaults            0                       # Number of TLB faults due to alignment restrictions
system.cpu.itb.stage2_mmu.stage2_tlb.prefetchFaults            0                       # Number of TLB faults due to prefetch
system.cpu.itb.stage2_mmu.stage2_tlb.domainFaults            0                       # Number of TLB faults due to domain restrictions
system.cpu.itb.stage2_mmu.stage2_tlb.permsFaults            0                       # Number of TLB faults due to permissions restrictions
system.cpu.itb.stage2_mmu.stage2_tlb.readAccesses            0                       # DTB read accesses
system.cpu.itb.stage2_mmu.stage2_tlb.writeAccesses            0                       # DTB write accesses
system.cpu.itb.stage2_mmu.stage2_tlb.instAccesses            0                       # ITB inst accesses
system.cpu.itb.stage2_mmu.stage2_tlb.hits            0                       # Total TLB (inst and data) hits
system.cpu.itb.stage2_mmu.stage2_tlb.misses            0                       # Total TLB (inst and data) misses
system.cpu.itb.stage2_mmu.stage2_tlb.accesses            0                       # Total TLB (inst and data) accesses
system.cpu.itb.stage2_mmu.stage2_tlb.walker.walks            0                       # Table walker walks requested
system.cpu.itb.stage2_mmu.stage2_tlb.walker.requestOrigin_Requested::Data            0                       # Table walker requests started/completed, data/inst
system.cpu.itb.stage2_mmu.stage2_tlb.walker.requestOrigin_Requested::Inst            0                       # Table walker requests started/completed, data/inst
system.cpu.itb.stage2_mmu.stage2_tlb.walker.requestOrigin_Requested::total            0                       # Table walker requests started/completed, data/inst
system.cpu.itb.stage2_mmu.stage2_tlb.walker.requestOrigin_Completed::Data            0                       # Table walker requests started/completed, data/inst
system.cpu.itb.stage2_mmu.stage2_tlb.walker.requestOrigin_Completed::Inst            0                       # Table walker requests started/completed, data/inst
system.cpu.itb.stage2_mmu.stage2_tlb.walker.requestOrigin_Completed::total            0                       # Table walker requests started/completed, data/inst
system.cpu.itb.stage2_mmu.stage2_tlb.walker.requestOrigin::total            0                       # Table walker requests started/completed, data/inst
system.cpu.itb.stage2_mmu.stage2_tlb.walker.power_state.pwrStateResidencyTicks::UNDEFINED     50603000                       # Cumulative time (in ticks) in various power states
system.cpu.itb.walker.walks                         0                       # Table walker walks requested
system.cpu.itb.walker.requestOrigin_Requested::Data            0                       # Table walker requests started/completed, data/inst
system.cpu.itb.walker.requestOrigin_Requested::Inst            0                       # Table walker requests started/completed, data/inst
system.cpu.itb.walker.requestOrigin_Requested::total            0                       # Table walker requests started/completed, data/inst
system.cpu.itb.walker.requestOrigin_Completed::Data            0                       # Table walker requests started/completed, data/inst
system.cpu.itb.walker.requestOrigin_Completed::Inst            0                       # Table walker requests started/completed, data/inst
system.cpu.itb.walker.requestOrigin_Completed::total            0                       # Table walker requests started/completed, data/inst
system.cpu.itb.walker.requestOrigin::total            0                       # Table walker requests started/completed, data/inst
system.cpu.itb.walker.power_state.pwrStateResidencyTicks::UNDEFINED     50603000                       # Cumulative time (in ticks) in various power states
system.cpu.power_state.pwrStateResidencyTicks::ON     50603000                       # Cumulative time (in ticks) in various power states
system.cpu.thread_0.numInsts                        0                       # Number of Instructions committed
system.cpu.thread_0.numOps                          0                       # Number of Ops committed
system.cpu.thread_0.numMemRefs                      0                       # Number of Memory References
system.cpu_clk_domain.clock                       500                       # Clock period in ticks
system.cpu_voltage_domain.voltage                   1                       # Voltage in Volts
system.mem_ctrls.avgPriority_.writebacks::samples        56.00                       # Average QoS priority value for accepted requests
system.mem_ctrls.avgPriority_.cpu.inst::samples       354.00                       # Average QoS priority value for accepted requests
system.mem_ctrls.avgPriority_.cpu.data::samples       185.00                       # Average QoS priority value for accepted requests
system.mem_ctrls.priorityMinLatency      0.000000018750                       # per QoS priority minimum request to response latency (s)
system.mem_ctrls.priorityMaxLatency      0.000041185750                       # per QoS priority maximum request to response latency (s)
system.mem_ctrls.numReadWriteTurnArounds            2                       # Number of turnarounds from READ to WRITE
system.mem_ctrls.numWriteReadTurnArounds            2                       # Number of turnarounds from WRITE to READ
system.mem_ctrls.numStayReadState                1143                       # Number of times bus staying in READ state
system.mem_ctrls.numStayWriteState                 30                       # Number of times bus staying in WRITE state
system.mem_ctrls.readReqs                         546                       # Number of read requests accepted
system.mem_ctrls.writeReqs                         56                       # Number of write requests accepted
system.mem_ctrls.readBursts                       546                       # Number of controller read bursts, including those serviced by the write queue
system.mem_ctrls.writeBursts                       56                       # Number of controller write bursts, including those merged in the write queue
system.mem_ctrls.servicedByWrQ                      7                       # Number of controller read bursts serviced by the write queue
system.mem_ctrls.mergedWrBursts                     0                       # Number of controller write bursts merged with an existing one
system.mem_ctrls.neitherReadNorWriteReqs            0                       # Number of requests that are neither read nor write
system.mem_ctrls.avgRdQLen                       1.01                       # Average read queue length when enqueuing
system.mem_ctrls.avgWrQLen                      10.83                       # Average write queue length when enqueuing
system.mem_ctrls.numRdRetry                         0                       # Number of times read queue was full causing retry
system.mem_ctrls.numWrRetry                         0                       # Number of times write queue was full causing retry
system.mem_ctrls.readPktSize::0                     0                       # Read request sizes (log2)
system.mem_ctrls.readPktSize::1                     0                       # Read request sizes (log2)
system.mem_ctrls.readPktSize::2                     0                       # Read request sizes (log2)
system.mem_ctrls.readPktSize::3                     0                       # Read request sizes (log2)
system.mem_ctrls.readPktSize::4                     0                       # Read request sizes (log2)
system.mem_ctrls.readPktSize::5                     0                       # Read request sizes (log2)
system.mem_ctrls.readPktSize::6                   546                       # Read request sizes (log2)
system.mem_ctrls.writePktSize::0                    0                       # Write request sizes (log2)
system.mem_ctrls.writePktSize::1                    0                       # Write request sizes (log2)
system.mem_ctrls.writePktSize::2                    0                       # Write request sizes (log2)
system.mem_ctrls.writePktSize::3                    0                       # Write request sizes (log2)
system.mem_ctrls.writePktSize::4                    0                       # Write request sizes (log2)
system.mem_ctrls.writePktSize::5                    0                       # Write request sizes (log2)
system.mem_ctrls.writePktSize::6                   56                       # Write request sizes (log2)
system.mem_ctrls.rdQLenPdf::0                     534                       # What read queue length does an incoming req see
system.mem_ctrls.rdQLenPdf::1                       5                       # What read queue length does an incoming req see
system.mem_ctrls.rdQLenPdf::2                       0                       # What read queue length does an incoming req see
system.mem_ctrls.rdQLenPdf::3                       0                       # What read queue length does an incoming req see
system.mem_ctrls.rdQLenPdf::4                       0                       # What read queue length does an incoming req see
system.mem_ctrls.rdQLenPdf::5                       0                       # What read queue length does an incoming req see
system.mem_ctrls.rdQLenPdf::6                       0                       # What read queue length does an incoming req see
system.mem_ctrls.rdQLenPdf::7                       0                       # What read queue length does an incoming req see
system.mem_ctrls.rdQLenPdf::8                       0                       # What read queue length does an incoming req see
system.mem_ctrls.rdQLenPdf::9                       0                       # What read queue length does an incoming req see
system.mem_ctrls.rdQLenPdf::10                      0                       # What read queue length does an incoming req see
system.mem_ctrls.rdQLenPdf::11                      0                       # What read queue length does an incoming req see
system.mem_ctrls.rdQLenPdf::12                      0                       # What read queue length does an incoming req see
system.mem_ctrls.rdQLenPdf::13                      0                       # What read queue length does an incoming req see
system.mem_ctrls.rdQLenPdf::14                      0                       # What read queue length does an incoming req see
system.mem_ctrls.rdQLenPdf::15                      0                       # What read queue length does an incoming req see
system.mem_ctrls.rdQLenPdf::16                      0                       # What read queue length does an incoming req see
system.mem_ctrls.rdQLenPdf::17                      0                       # What read queue length does an incoming req see
system.mem_ctrls.rdQLenPdf::18                      0                       # What read queue length does an incoming req see
system.mem_ctrls.rdQLenPdf::19                      0                       # What read queue length does an incoming req see
system.mem_ctrls.rdQLenPdf::20                      0                       # What read queue length does an incoming req see
system.mem_ctrls.rdQLenPdf::21                      0                       # What read queue length does an incoming req see
system.mem_ctrls.rdQLenPdf::22                      0                       # What read queue length does an incoming req see
system.mem_ctrls.rdQLenPdf::23                      0                       # What read queue length does an incoming req see
system.mem_ctrls.rdQLenPdf::24                      0                       # What read queue length does an incoming req see
system.mem_ctrls.rdQLenPdf::25                      0                       # What read queue length does an incoming req see
system.mem_ctrls.rdQLenPdf::26                      0                       # What read queue length does an incoming req see
system.mem_ctrls.rdQLenPdf::27                      0                       # What read queue length does an incoming req see
system.mem_ctrls.rdQLenPdf::28                      0                       # What read queue length does an incoming req see
system.mem_ctrls.rdQLenPdf::29                      0                       # What read queue length does an incoming req see
system.mem_ctrls.rdQLenPdf::30                      0                       # What read queue length does an incoming req see
system.mem_ctrls.rdQLenPdf::31                      0                       # What read queue length does an incoming req see
system.mem_ctrls.wrQLenPdf::0                       1                       # What write queue length does an incoming req see
system.mem_ctrls.wrQLenPdf::1                       1                       # What write queue length does an incoming req see
system.mem_ctrls.wrQLenPdf::2                       1                       # What write queue length does an incoming req see
system.mem_ctrls.wrQLenPdf::3                       1                       # What write queue length does an incoming req see
system.mem_ctrls.wrQLenPdf::4                       1                       # What write queue length does an incoming req see
system.mem_ctrls.wrQLenPdf::5                       1                       # What write queue length does an incoming req see
system.mem_ctrls.wrQLenPdf::6                       1                       # What write queue length does an incoming req see
system.mem_ctrls.wrQLenPdf::7                       1                       # What write queue length does an incoming req see
system.mem_ctrls.wrQLenPdf::8                       1                       # What write queue length does an incoming req see
system.mem_ctrls.wrQLenPdf::9                       1                       # What write queue length does an incoming req see
system.mem_ctrls.wrQLenPdf::10                      1                       # What write queue length does an incoming req see
system.mem_ctrls.wrQLenPdf::11                      1                       # What write queue length does an incoming req see
system.mem_ctrls.wrQLenPdf::12                      1                       # What write queue length does an incoming req see
system.mem_ctrls.wrQLenPdf::13                      1                       # What write queue length does an incoming req see
system.mem_ctrls.wrQLenPdf::14                      1                       # What write queue length does an incoming req see
system.mem_ctrls.wrQLenPdf::15                      1                       # What write queue length does an incoming req see
system.mem_ctrls.wrQLenPdf::16                      1                       # What write queue length does an incoming req see
system.mem_ctrls.wrQLenPdf::17                      3                       # What write queue length does an incoming req see
system.mem_ctrls.wrQLenPdf::18                      3                       # What write queue length does an incoming req see
system.mem_ctrls.wrQLenPdf::19                      3                       # What write queue length does an incoming req see
system.mem_ctrls.wrQLenPdf::20                      3                       # What write queue length does an incoming req see
system.mem_ctrls.wrQLenPdf::21                      3                       # What write queue length does an incoming req see
system.mem_ctrls.wrQLenPdf::22                      3                       # What write queue length does an incoming req see
system.mem_ctrls.wrQLenPdf::23                      3                       # What write queue length does an incoming req see
system.mem_ctrls.wrQLenPdf::24                      2                       # What write queue length does an incoming req see
system.mem_ctrls.wrQLenPdf::25                      2                       # What write queue length does an incoming req see
system.mem_ctrls.wrQLenPdf::26                      2                       # What write queue length does an incoming req see
system.mem_ctrls.wrQLenPdf::27                      2                       # What write queue length does an incoming req see
system.mem_ctrls.wrQLenPdf::28                      2                       # What write queue length does an incoming req see
system.mem_ctrls.wrQLenPdf::29                      2                       # What write queue length does an incoming req see
system.mem_ctrls.wrQLenPdf::30                      2                       # What write queue length does an incoming req see
system.mem_ctrls.wrQLenPdf::31                      2                       # What write queue length does an incoming req see
system.mem_ctrls.wrQLenPdf::32                      2                       # What write queue length does an incoming req see
system.mem_ctrls.wrQLenPdf::33                      0                       # What write queue length does an incoming req see
system.mem_ctrls.wrQLenPdf::34                      0                       # What write queue length does an incoming req see
system.mem_ctrls.wrQLenPdf::35                      0                       # What write queue length does an incoming req see
system.mem_ctrls.wrQLenPdf::36                      0                       # What write queue length does an incoming req see
system.mem_ctrls.wrQLenPdf::37                      0                       # What write queue length does an incoming req see
system.mem_ctrls.wrQLenPdf::38                      0                       # What write queue length does an incoming req see
system.mem_ctrls.wrQLenPdf::39                      0                       # What write queue length does an incoming req see
system.mem_ctrls.wrQLenPdf::40                      0                       # What write queue length does an incoming req see
system.mem_ctrls.wrQLenPdf::41                      0                       # What write queue length does an incoming req see
system.mem_ctrls.wrQLenPdf::42                      0                       # What write queue length does an incoming req see
system.mem_ctrls.wrQLenPdf::43                      0                       # What write queue length does an incoming req see
system.mem_ctrls.wrQLenPdf::44                      0                       # What write queue length does an incoming req see
system.mem_ctrls.wrQLenPdf::45                      0                       # What write queue length does an incoming req see
system.mem_ctrls.wrQLenPdf::46                      0                       # What write queue length does an incoming req see
system.mem_ctrls.wrQLenPdf::47                      0                       # What write queue length does an incoming req see
system.mem_ctrls.wrQLenPdf::48                      0                       # What write queue length does an incoming req see
system.mem_ctrls.wrQLenPdf::49                      0                       # What write queue length does an incoming req see
system.mem_ctrls.wrQLenPdf::50                      0                       # What write queue length does an incoming req see
system.mem_ctrls.wrQLenPdf::51                      0                       # What write queue length does an incoming req see
system.mem_ctrls.wrQLenPdf::52                      0                       # What write queue length does an incoming req see
system.mem_ctrls.wrQLenPdf::53                      0                       # What write queue length does an incoming req see
system.mem_ctrls.wrQLenPdf::54                      0                       # What write queue length does an incoming req see
system.mem_ctrls.wrQLenPdf::55                      0                       # What write queue length does an incoming req see
system.mem_ctrls.wrQLenPdf::56                      0                       # What write queue length does an incoming req see
system.mem_ctrls.wrQLenPdf::57                      0                       # What write queue length does an incoming req see
system.mem_ctrls.wrQLenPdf::58                      0                       # What write queue length does an incoming req see
system.mem_ctrls.wrQLenPdf::59                      0                       # What write queue length does an incoming req see
system.mem_ctrls.wrQLenPdf::60                      0                       # What write queue length does an incoming req see
system.mem_ctrls.wrQLenPdf::61                      0                       # What write queue length does an incoming req see
system.mem_ctrls.wrQLenPdf::62                      0                       # What write queue length does an incoming req see
system.mem_ctrls.wrQLenPdf::63                      0                       # What write queue length does an incoming req see
system.mem_ctrls.rdPerTurnAround::samples            2                       # Reads before turning the bus around for writes
system.mem_ctrls.rdPerTurnAround::mean            244                       # Reads before turning the bus around for writes
system.mem_ctrls.rdPerTurnAround::gmean    170.032350                       # Reads before turning the bus around for writes
system.mem_ctrls.rdPerTurnAround::stdev    247.487373                       # Reads before turning the bus around for writes
system.mem_ctrls.rdPerTurnAround::64-79             1     50.00%     50.00% # Reads before turning the bus around for writes
system.mem_ctrls.rdPerTurnAround::416-431            1     50.00%    100.00% # Reads before turning the bus around for writes
system.mem_ctrls.rdPerTurnAround::total             2                       # Reads before turning the bus around for writes
system.mem_ctrls.wrPerTurnAround::samples            2                       # Writes before turning the bus around for reads
system.mem_ctrls.wrPerTurnAround::mean             16                       # Writes before turning the bus around for reads
system.mem_ctrls.wrPerTurnAround::gmean     16.000000                       # Writes before turning the bus around for reads
system.mem_ctrls.wrPerTurnAround::16                2    100.00%    100.00% # Writes before turning the bus around for reads
system.mem_ctrls.wrPerTurnAround::total             2                       # Writes before turning the bus around for reads
system.mem_ctrls.bytesReadWrQ                     448                       # Total number of bytes read from write queue
system.mem_ctrls.bytesReadSys                   34944                       # Total read bytes from the system interface side
system.mem_ctrls.bytesWrittenSys                 3584                       # Total written bytes from the system interface side
system.mem_ctrls.avgRdBWSys                    690.55                       # Average system read bandwidth in MiByte/s
system.mem_ctrls.avgWrBWSys                     70.83                       # Average system write bandwidth in MiByte/s
system.mem_ctrls.totGap                      50510500                       # Total gap between requests
system.mem_ctrls.avgGap                      83904.49                       # Average gap between requests
system.mem_ctrls.requestorReadBytes::.cpu.inst        22656                       # Per-requestor bytes read from memory
system.mem_ctrls.requestorReadBytes::.cpu.data        11840                       # Per-requestor bytes read from memory
system.mem_ctrls.requestorWriteBytes::.writebacks         2048                       # Per-requestor bytes write to memory
system.mem_ctrls.requestorReadRate::.cpu.inst 447720490.879987299442                       # Per-requestor bytes read from memory rate (Bytes/sec)
system.mem_ctrls.requestorReadRate::.cpu.data 233978222.635021626949                       # Per-requestor bytes read from memory rate (Bytes/sec)
system.mem_ctrls.requestorWriteRate::.writebacks 40471908.780111849308                       # Per-requestor bytes write to memory rate (Bytes/sec)
system.mem_ctrls.requestorReadAccesses::.cpu.inst          360                       # Per-requestor read serviced memory accesses
system.mem_ctrls.requestorReadAccesses::.cpu.data          186                       # Per-requestor read serviced memory accesses
system.mem_ctrls.requestorWriteAccesses::.writebacks           56                       # Per-requestor write serviced memory accesses
system.mem_ctrls.requestorReadTotalLat::.cpu.inst      9241750                       # Per-requestor read total memory access latency
system.mem_ctrls.requestorReadTotalLat::.cpu.data      4936000                       # Per-requestor read total memory access latency
system.mem_ctrls.requestorWriteTotalLat::.writebacks    299401750                       # Per-requestor write total memory access latency
system.mem_ctrls.requestorReadAvgLat::.cpu.inst     25671.53                       # Per-requestor read average memory access latency
system.mem_ctrls.requestorReadAvgLat::.cpu.data     26537.63                       # Per-requestor read average memory access latency
system.mem_ctrls.requestorWriteAvgLat::.writebacks   5346459.82                       # Per-requestor write average memory access latency
system.mem_ctrls.dram.bytes_read::.cpu.inst        23040                       # Number of bytes read from this memory
system.mem_ctrls.dram.bytes_read::.cpu.data        11904                       # Number of bytes read from this memory
system.mem_ctrls.dram.bytes_read::total         34944                       # Number of bytes read from this memory
system.mem_ctrls.dram.bytes_inst_read::.cpu.inst        23040                       # Number of instructions bytes read from this memory
system.mem_ctrls.dram.bytes_inst_read::total        23040                       # Number of instructions bytes read from this memory
system.mem_ctrls.dram.num_reads::.cpu.inst          360                       # Number of read requests responded to by this memory
system.mem_ctrls.dram.num_reads::.cpu.data          186                       # Number of read requests responded to by this memory
system.mem_ctrls.dram.num_reads::total            546                       # Number of read requests responded to by this memory
system.mem_ctrls.dram.bw_read::.cpu.inst    455308974                       # Total read bandwidth from this memory (bytes/s)
system.mem_ctrls.dram.bw_read::.cpu.data    235242970                       # Total read bandwidth from this memory (bytes/s)
system.mem_ctrls.dram.bw_read::total        690551944                       # Total read bandwidth from this memory (bytes/s)
system.mem_ctrls.dram.bw_inst_read::.cpu.inst    455308974                       # Instruction read bandwidth from this memory (bytes/s)
system.mem_ctrls.dram.bw_inst_read::total    455308974                       # Instruction read bandwidth from this memory (bytes/s)
system.mem_ctrls.dram.bw_total::.cpu.inst    455308974                       # Total bandwidth to/from this memory (bytes/s)
system.mem_ctrls.dram.bw_total::.cpu.data    235242970                       # Total bandwidth to/from this memory (bytes/s)
system.mem_ctrls.dram.bw_total::total       690551944                       # Total bandwidth to/from this memory (bytes/s)
system.mem_ctrls.dram.readBursts                  539                       # Number of DRAM read bursts
system.mem_ctrls.dram.writeBursts                  32                       # Number of DRAM write bursts
system.mem_ctrls.dram.perBankRdBursts::0           47                       # Per bank write bursts
system.mem_ctrls.dram.perBankRdBursts::1           56                       # Per bank write bursts
system.mem_ctrls.dram.perBankRdBursts::2           19                       # Per bank write bursts
system.mem_ctrls.dram.perBankRdBursts::3           22                       # Per bank write bursts
system.mem_ctrls.dram.perBankRdBursts::4            8                       # Per bank write bursts
system.mem_ctrls.dram.perBankRdBursts::5           26                       # Per bank write bursts
system.mem_ctrls.dram.perBankRdBursts::6           38                       # Per bank write bursts
system.mem_ctrls.dram.perBankRdBursts::7           42                       # Per bank write bursts
system.mem_ctrls.dram.perBankRdBursts::8           44                       # Per bank write bursts
system.mem_ctrls.dram.perBankRdBursts::9           87                       # Per bank write bursts
system.mem_ctrls.dram.perBankRdBursts::10           51                       # Per bank write bursts
system.mem_ctrls.dram.perBankRdBursts::11           69                       # Per bank write bursts
system.mem_ctrls.dram.perBankRdBursts::12           10                       # Per bank write bursts
system.mem_ctrls.dram.perBankRdBursts::13            9                       # Per bank write bursts
system.mem_ctrls.dram.perBankRdBursts::14           10                       # Per bank write bursts
system.mem_ctrls.dram.perBankRdBursts::15            1                       # Per bank write bursts
system.mem_ctrls.dram.perBankWrBursts::0            5                       # Per bank write bursts
system.mem_ctrls.dram.perBankWrBursts::1            2                       # Per bank write bursts
system.mem_ctrls.dram.perBankWrBursts::2            1                       # Per bank write bursts
system.mem_ctrls.dram.perBankWrBursts::3            7                       # Per bank write bursts
system.mem_ctrls.dram.perBankWrBursts::4            0                       # Per bank write bursts
system.mem_ctrls.dram.perBankWrBursts::5            3                       # Per bank write bursts
system.mem_ctrls.dram.perBankWrBursts::6            1                       # Per bank write bursts
system.mem_ctrls.dram.perBankWrBursts::7            5                       # Per bank write bursts
system.mem_ctrls.dram.perBankWrBursts::8            6                       # Per bank write bursts
system.mem_ctrls.dram.perBankWrBursts::9            0                       # Per bank write bursts
system.mem_ctrls.dram.perBankWrBursts::10            0                       # Per bank write bursts
system.mem_ctrls.dram.perBankWrBursts::11            2                       # Per bank write bursts
system.mem_ctrls.dram.perBankWrBursts::12            0                       # Per bank write bursts
system.mem_ctrls.dram.perBankWrBursts::13            0                       # Per bank write bursts
system.mem_ctrls.dram.perBankWrBursts::14            0                       # Per bank write bursts
system.mem_ctrls.dram.perBankWrBursts::15            0                       # Per bank write bursts
system.mem_ctrls.dram.totQLat                 4071500                       # Total ticks spent queuing
system.mem_ctrls.dram.totBusLat               2695000                       # Total ticks spent in databus transfers
system.mem_ctrls.dram.totMemAccLat           14177750                       # Total ticks spent from burst creation until serviced by the DRAM
system.mem_ctrls.dram.avgQLat                 7553.80                       # Average queueing delay per DRAM burst
system.mem_ctrls.dram.avgBusLat               5000.00                       # Average bus latency per DRAM burst
system.mem_ctrls.dram.avgMemAccLat           26303.80                       # Average memory access latency per DRAM burst
system.mem_ctrls.dram.readRowHits                 414                       # Number of row buffer hits during reads
system.mem_ctrls.dram.writeRowHits                 22                       # Number of row buffer hits during writes
system.mem_ctrls.dram.readRowHitRate            76.81                       # Row buffer hit rate for reads
system.mem_ctrls.dram.writeRowHitRate           68.75                       # Row buffer hit rate for writes
system.mem_ctrls.dram.bytesPerActivate::samples          126                       # Bytes accessed per row activation
system.mem_ctrls.dram.bytesPerActivate::mean   275.809524                       # Bytes accessed per row activation
system.mem_ctrls.dram.bytesPerActivate::gmean   173.950694                       # Bytes accessed per row activation
system.mem_ctrls.dram.bytesPerActivate::stdev   284.086683                       # Bytes accessed per row activation
system.mem_ctrls.dram.bytesPerActivate::0-127           44     34.92%     34.92% # Bytes accessed per row activation
system.mem_ctrls.dram.bytesPerActivate::128-255           33     26.19%     61.11% # Bytes accessed per row activation
system.mem_ctrls.dram.bytesPerActivate::256-383           18     14.29%     75.40% # Bytes accessed per row activation
system.mem_ctrls.dram.bytesPerActivate::384-511            7      5.56%     80.95% # Bytes accessed per row activation
system.mem_ctrls.dram.bytesPerActivate::512-639            6      4.76%     85.71% # Bytes accessed per row activation
system.mem_ctrls.dram.bytesPerActivate::640-767            5      3.97%     89.68% # Bytes accessed per row activation
system.mem_ctrls.dram.bytesPerActivate::768-895            3      2.38%     92.06% # Bytes accessed per row activation
system.mem_ctrls.dram.bytesPerActivate::896-1023            1      0.79%     92.86% # Bytes accessed per row activation
system.mem_ctrls.dram.bytesPerActivate::1024-1151            9      7.14%    100.00% # Bytes accessed per row activation
system.mem_ctrls.dram.bytesPerActivate::total          126                       # Bytes accessed per row activation
system.mem_ctrls.dram.bytesRead                 34496                       # Total number of bytes read from DRAM
system.mem_ctrls.dram.bytesWritten               2048                       # Total number of bytes written to DRAM
system.mem_ctrls.dram.avgRdBW              681.698714                       # Average DRAM read bandwidth in MiBytes/s
system.mem_ctrls.dram.avgWrBW               40.471909                       # Average DRAM write bandwidth in MiBytes/s
system.mem_ctrls.dram.peakBW                 12800.00                       # Theoretical peak bandwidth in MiByte/s
system.mem_ctrls.dram.busUtil                    5.64                       # Data bus utilization in percentage
system.mem_ctrls.dram.busUtilRead                5.33                       # Data bus utilization in percentage for reads
system.mem_ctrls.dram.busUtilWrite               0.32                       # Data bus utilization in percentage for writes
system.mem_ctrls.dram.pageHitRate               76.36                       # Row buffer hit rate, read and write combined
system.mem_ctrls.dram.power_state.pwrStateResidencyTicks::UNDEFINED     50603000                       # Cumulative time (in ticks) in various power states
system.mem_ctrls.dram.rank0.actEnergy          414120                       # Energy for activate commands per rank (pJ)
system.mem_ctrls.dram.rank0.preEnergy          204930                       # Energy for precharge commands per rank (pJ)
system.mem_ctrls.dram.rank0.readEnergy        1842120                       # Energy for read commands per rank (pJ)
system.mem_ctrls.dram.rank0.writeEnergy        125280                       # Energy for write commands per rank (pJ)
system.mem_ctrls.dram.rank0.refreshEnergy 3687840.000000                       # Energy for refresh commands per rank (pJ)
system.mem_ctrls.dram.rank0.actBackEnergy     22074390                       # Energy for active background per rank (pJ)
system.mem_ctrls.dram.rank0.preBackEnergy       842880                       # Energy for precharge background per rank (pJ)
system.mem_ctrls.dram.rank0.actPowerDownEnergy            0                       # Energy for active power-down per rank (pJ)
system.mem_ctrls.dram.rank0.prePowerDownEnergy            0                       # Energy for precharge power-down per rank (pJ)
system.mem_ctrls.dram.rank0.selfRefreshEnergy            0                       # Energy for self refresh per rank (pJ)
system.mem_ctrls.dram.rank0.totalEnergy      29191560                       # Total energy per rank (pJ)
system.mem_ctrls.dram.rank0.averagePower   576.874098                       # Core power per rank (mW)
system.mem_ctrls.dram.rank0.totalIdleTime            0                       # Total Idle time Per DRAM Rank
system.mem_ctrls.dram.rank0.pwrStateTime::IDLE      2026750                       # Time in different power states
system.mem_ctrls.dram.rank0.pwrStateTime::REF      1560000                       # Time in different power states
system.mem_ctrls.dram.rank0.pwrStateTime::SREF            0                       # Time in different power states
system.mem_ctrls.dram.rank0.pwrStateTime::PRE_PDN            0                       # Time in different power states
system.mem_ctrls.dram.rank0.pwrStateTime::ACT     47016250                       # Time in different power states
system.mem_ctrls.dram.rank0.pwrStateTime::ACT_PDN            0                       # Time in different power states
system.mem_ctrls.dram.rank1.actEnergy          549780                       # Energy for activate commands per rank (pJ)
system.mem_ctrls.dram.rank1.preEnergy          273240                       # Energy for precharge commands per rank (pJ)
system.mem_ctrls.dram.rank1.readEnergy        2006340                       # Energy for read commands per rank (pJ)
system.mem_ctrls.dram.rank1.writeEnergy         41760                       # Energy for write commands per rank (pJ)
system.mem_ctrls.dram.rank1.refreshEnergy 3687840.000000                       # Energy for refresh commands per rank (pJ)
system.mem_ctrls.dram.rank1.actBackEnergy     22582830                       # Energy for active background per rank (pJ)
system.mem_ctrls.dram.rank1.preBackEnergy       414720                       # Energy for precharge background per rank (pJ)
system.mem_ctrls.dram.rank1.actPowerDownEnergy            0                       # Energy for active power-down per rank (pJ)
system.mem_ctrls.dram.rank1.prePowerDownEnergy            0                       # Energy for precharge power-down per rank (pJ)
system.mem_ctrls.dram.rank1.selfRefreshEnergy            0                       # Energy for self refresh per rank (pJ)
system.mem_ctrls.dram.rank1.totalEnergy      29556510                       # Total energy per rank (pJ)
system.mem_ctrls.dram.rank1.averagePower   584.086121                       # Core power per rank (mW)
system.mem_ctrls.dram.rank1.totalIdleTime            0                       # Total Idle time Per DRAM Rank
system.mem_ctrls.dram.rank1.pwrStateTime::IDLE       914000                       # Time in different power states
system.mem_ctrls.dram.rank1.pwrStateTime::REF      1560000                       # Time in different power states
system.mem_ctrls.dram.rank1.pwrStateTime::SREF            0                       # Time in different power states
system.mem_ctrls.dram.rank1.pwrStateTime::PRE_PDN            0                       # Time in different power states
system.mem_ctrls.dram.rank1.pwrStateTime::ACT     48129000                       # Time in different power states
system.mem_ctrls.dram.rank1.pwrStateTime::ACT_PDN            0                       # Time in different power states
system.mem_ctrls.power_state.pwrStateResidencyTicks::UNDEFINED     50603000                       # Cumulative time (in ticks) in various power states
system.membus.trans_dist::ReadResp                473                       # Transaction distribution
system.membus.trans_dist::WritebackClean           60                       # Transaction distribution
system.membus.trans_dist::ReadExReq                73                       # Transaction distribution
system.membus.trans_dist::ReadExResp               73                       # Transaction distribution
system.membus.trans_dist::ReadCleanReq            360                       # Transaction distribution
system.membus.trans_dist::ReadSharedReq           113                       # Transaction distribution
system.membus.pkt_count_system.cpu.icache.mem_side_port::system.mem_ctrls.port          780                       # Packet count per connected requestor and responder (bytes)
system.membus.pkt_count_system.cpu.dcache.mem_side_port::system.mem_ctrls.port          372                       # Packet count per connected requestor and responder (bytes)
system.membus.pkt_count::total                   1152                       # Packet count per connected requestor and responder (bytes)
system.membus.pkt_size_system.cpu.icache.mem_side_port::system.mem_ctrls.port        26880                       # Cumulative packet size per connected requestor and responder (bytes)
system.membus.pkt_size_system.cpu.dcache.mem_side_port::system.mem_ctrls.port        11904                       # Cumulative packet size per connected requestor and responder (bytes)
system.membus.pkt_size::total                   38784                       # Cumulative packet size per connected requestor and responder (bytes)
system.membus.snoops                                0                       # Total snoops (count)
system.membus.snoopTraffic                          0                       # Total snoop traffic (bytes)
system.membus.snoop_fanout::samples               546                       # Request fanout histogram
system.membus.snoop_fanout::mean             0.038462                       # Request fanout histogram
system.membus.snoop_fanout::stdev            0.192484                       # Request fanout histogram
system.membus.snoop_fanout::underflows              0      0.00%      0.00% # Request fanout histogram
system.membus.snoop_fanout::0                     525     96.15%     96.15% # Request fanout histogram
system.membus.snoop_fanout::1                      21      3.85%    100.00% # Request fanout histogram
system.membus.snoop_fanout::2                       0      0.00%    100.00% # Request fanout histogram
system.membus.snoop_fanout::overflows               0      0.00%    100.00% # Request fanout histogram
system.membus.snoop_fanout::min_value               0                       # Request fanout histogram
system.membus.snoop_fanout::max_value               1                       # Request fanout histogram
system.membus.snoop_fanout::total                 546                       # Request fanout histogram
system.membus.power_state.pwrStateResidencyTicks::UNDEFINED     50603000                       # Cumulative time (in ticks) in various power states
system.membus.reqLayer0.occupancy              852500                       # Layer occupancy (ticks)
system.membus.reqLayer0.utilization               1.7                       # Layer utilization (%)
system.membus.respLayer1.occupancy            1913250                       # Layer occupancy (ticks)
system.membus.respLayer1.utilization              3.8                       # Layer utilization (%)
system.membus.respLayer2.occupancy             991500                       # Layer occupancy (ticks)
system.membus.respLayer2.utilization              2.0                       # Layer utilization (%)
system.voltage_domain.voltage                       1                       # Voltage in Volts

---------- End Simulation Statistics   ----------
